Molecule
                                                    

 61 67  0     0  0  0  0  0  0  1 V2000
   16.3210  -25.6610   25.1130 C   0  0  0  0  0  0  0  0  0  0  0  0
   15.4010  -25.7840   23.9710 C   0  0  0  0  0  0  0  0  0  0  0  0
   16.1390  -25.7530   22.7980 C   0  0  0  0  0  0  0  0  0  0  0  0
   17.6770  -25.4000   24.5330 C   0  0  0  0  0  0  0  0  0  0  0  0
   18.8410  -26.2690   24.5630 C   0  0  0  0  0  0  0  0  0  0  0  0
   20.0630  -25.7150   23.8350 C   0  0  0  0  0  0  0  0  0  0  0  0
   21.1530  -24.1060   25.5180 C   0  0  0  0  0  0  0  0  0  0  0  0
   22.2740  -24.8800   25.8220 C   0  0  0  0  0  0  0  0  0  0  0  0
   21.4120  -22.9690   27.5150 C   0  0  0  0  0  0  0  0  0  0  0  0
   22.5140  -23.7250   27.8250 C   0  0  0  0  0  0  0  0  0  0  0  0
   22.9820  -23.2580   29.0970 C   0  0  0  0  0  0  0  0  0  0  0  0
   23.9840  -23.9030   31.2770 C   0  0  0  0  0  0  0  0  0  0  0  0
   25.2530  -24.1920   32.0450 C   0  0  0  0  0  0  0  0  0  0  0  0
   26.1660  -25.1710   31.3360 C   0  0  0  0  0  0  0  0  0  0  0  0
   26.4450  -24.6660   29.8840 C   0  0  0  0  0  0  0  0  0  0  0  0
   25.4330  -23.9740   29.2000 C   0  0  0  0  0  0  0  0  0  0  0  0
   25.6870  -23.5110   27.8920 C   0  0  0  0  0  0  0  0  0  0  0  0
   26.9470  -23.7610   27.3300 C   0  0  0  0  0  0  0  0  0  0  0  0
   27.9150  -24.4610   28.0860 C   0  0  0  0  0  0  0  0  0  0  0  0
   19.1510  -23.4710   24.0590 C   0  0  0  0  0  0  0  0  0  0  0  0
   17.9750  -24.0180   24.8600 C   0  0  0  0  0  0  0  0  0  0  0  0
   15.4860  -25.8510   21.5510 C   0  0  0  0  0  0  0  0  0  0  0  0
   14.0980  -25.9780   21.5020 C   0  0  0  0  0  0  0  0  0  0  0  0
   13.3530  -26.0080   22.6870 C   0  0  0  0  0  0  0  0  0  0  0  0
   13.9970  -25.9120   23.9180 C   0  0  0  0  0  0  0  0  0  0  0  0
   16.3340  -26.9140   25.8970 N   0  3  0  0  0  0  0  0  0  0  0  0
   20.4100  -24.3000   24.2830 N   0  0  0  0  0  0  0  0  0  0  0  0
   22.9310  -24.6750   26.9660 N   0  0  0  0  0  0  0  0  0  0  0  0
   20.7410  -23.1750   26.3550 N   0  0  0  0  0  0  0  0  0  0  0  0
   24.1240  -23.7480   29.8560 N   0  0  0  0  0  0  0  0  0  0  0  0
   27.6490  -24.8870   29.3210 N   0  0  0  0  0  0  0  0  0  0  0  0
   22.1660  -22.2820   29.4870 N   0  0  0  0  0  0  0  0  0  0  0  0
   21.2040  -22.0900   28.5360 N   0  0  0  0  0  0  0  0  0  0  0  0
   17.5740  -25.6160   23.1230 O   0  0  0  0  0  0  0  0  0  0  0  0
   16.0610  -24.9400   25.6550 H   0  0  0  0  0  0  0  0  0  0  0  0
   19.0750  -26.4170   25.4610 H   0  0  0  0  0  0  0  0  0  0  0  0
   18.6080  -27.0870   24.1670 H   0  0  0  0  0  0  0  0  0  0  0  0
   20.7970  -26.2760   24.0050 H   0  0  0  0  0  0  0  0  0  0  0  0
   19.8880  -25.7070   22.9130 H   0  0  0  0  0  0  0  0  0  0  0  0
   22.5610  -25.5350   25.2300 H   0  0  0  0  0  0  0  0  0  0  0  0
   23.6150  -23.1100   31.6190 H   0  0  0  0  0  0  0  0  0  0  0  0
   23.3870  -24.6110   31.4320 H   0  0  0  0  0  0  0  0  0  0  0  0
   25.7190  -23.3840   32.1510 H   0  0  0  0  0  0  0  0  0  0  0  0
   25.0140  -24.5640   32.8740 H   0  0  0  0  0  0  0  0  0  0  0  0
   26.9800  -25.2220   31.8030 H   0  0  0  0  0  0  0  0  0  0  0  0
   25.7410  -26.0070   31.2920 H   0  0  0  0  0  0  0  0  0  0  0  0
   25.0360  -23.0520   27.4140 H   0  0  0  0  0  0  0  0  0  0  0  0
   27.1440  -23.4700   26.4700 H   0  0  0  0  0  0  0  0  0  0  0  0
   28.7510  -24.6280   27.7160 H   0  0  0  0  0  0  0  0  0  0  0  0
   18.9340  -23.4850   23.1450 H   0  0  0  0  0  0  0  0  0  0  0  0
   19.3170  -22.5850   24.3230 H   0  0  0  0  0  0  0  0  0  0  0  0
   17.2160  -23.4940   24.6790 H   0  0  0  0  0  0  0  0  0  0  0  0
   18.1780  -23.9610   25.7740 H   0  0  0  0  0  0  0  0  0  0  0  0
   15.9790  -25.8300   20.7640 H   0  0  0  0  0  0  0  0  0  0  0  0
   13.6670  -26.0430   20.6810 H   0  0  0  0  0  0  0  0  0  0  0  0
   12.4280  -26.0930   22.6530 H   0  0  0  0  0  0  0  0  0  0  0  0
   13.5030  -25.9310   24.7040 H   0  0  0  0  0  0  0  0  0  0  0  0
   16.5000  -27.5890   25.3660 H   0  0  0  0  0  0  0  0  0  0  0  0
   15.5560  -27.0280   26.2780 H   0  0  0  0  0  0  0  0  0  0  0  0
   20.5650  -21.5040   28.5750 H   0  0  0  0  0  0  0  0  0  0  0  0
   16.9550  -26.8670   26.5110 H   0  0  0  0  0  0  0  0  0  0  0  0
 22 23  2  0  0  0  0
  3 22  1  0  0  0  0
 23 24  1  0  0  0  0
  3 34  1  0  0  0  0
  4 34  1  0  0  0  0
  6 27  1  0  0  0  0
  5  6  1  0  0  0  0
  2  3  2  0  0  0  0
 20 27  1  0  0  0  0
  7 27  1  0  0  0  0
 20 21  1  0  0  0  0
 24 25  2  0  0  0  0
  4  5  1  0  0  0  0
  4 21  1  0  0  0  0
  1  4  1  0  0  0  0
  7  8  2  0  0  0  0
  8 28  1  0  0  0  0
  2 25  1  0  0  0  0
  1  2  1  0  0  0  0
  7 29  1  0  0  0  0
 18 19  2  0  0  0  0
 17 18  1  0  0  0  0
 19 31  1  0  0  0  0
 10 28  2  0  0  0  0
  1 26  1  0  0  0  0
 16 17  2  0  0  0  0
  9 29  2  0  0  0  0
  9 10  1  0  0  0  0
 10 11  1  0  0  0  0
 15 31  2  0  0  0  0
  9 33  1  0  0  0  0
 15 16  1  0  0  0  0
 16 30  1  0  0  0  0
 14 15  1  0  0  0  0
 11 30  1  0  0  0  0
 11 32  2  0  0  0  0
 32 33  1  0  0  0  0
 12 30  1  0  0  0  0
 13 14  1  0  0  0  0
 12 13  1  0  0  0  0
  1 35  1  0  0  0  0
  5 36  1  0  0  0  0
  5 37  1  0  0  0  0
  6 38  1  0  0  0  0
  6 39  1  0  0  0  0
  8 40  1  0  0  0  0
 12 41  1  0  0  0  0
 12 42  1  0  0  0  0
 13 43  1  0  0  0  0
 13 44  1  0  0  0  0
 14 45  1  0  0  0  0
 14 46  1  0  0  0  0
 17 47  1  0  0  0  0
 18 48  1  0  0  0  0
 19 49  1  0  0  0  0
 20 50  1  0  0  0  0
 20 51  1  0  0  0  0
 21 52  1  0  0  0  0
 21 53  1  0  0  0  0
 22 54  1  0  0  0  0
 23 55  1  0  0  0  0
 24 56  1  0  0  0  0
 25 57  1  0  0  0  0
 26 58  1  0  0  0  0
 26 59  1  0  0  0  0
 33 60  1  0  0  0  0
 26 61  1  0  0  0  0
M  CHG  1  26   1
M  END
$$$$
