1; GDC-1971, RLY-1971
     RDKit          3D

 34 40  0  0  0  0  0  0  0  0999 V2000
   16.3241  -26.9251   25.9101 N   0  0  0  0  0  0  0  0  0  0  0  0
   16.3094  -25.6896   25.1434 C   0  0  2  0  0  0  0  0  0  0  0  0
   15.3934  -25.7812   23.9742 C   0  0  0  0  0  0  0  0  0  0  0  0
   14.0014  -25.9045   23.9315 C   0  0  0  0  0  0  0  0  0  0  0  0
   13.3570  -26.0103   22.6933 C   0  0  0  0  0  0  0  0  0  0  0  0
   14.1074  -25.9927   21.5128 C   0  0  0  0  0  0  0  0  0  0  0  0
   15.5070  -25.8646   21.5688 C   0  0  0  0  0  0  0  0  0  0  0  0
   16.1354  -25.7530   22.8117 C   0  0  0  0  0  0  0  0  0  0  0  0
   17.4912  -25.5919   23.0559 O   0  0  0  0  0  0  0  0  0  0  0  0
   17.6645  -25.4011   24.4842 C   0  0  0  0  0  0  0  0  0  0  0  0
   18.8777  -26.2912   24.6212 C   0  0  0  0  0  0  0  0  0  0  0  0
   20.0961  -25.7102   23.8427 C   0  0  0  0  0  0  0  0  0  0  0  0
   20.3601  -24.3493   24.3467 N   0  0  0  0  0  0  0  0  0  0  0  0
   21.1390  -24.1062   25.4917 C   0  0  0  0  0  0  0  0  0  0  0  0
   22.2704  -24.8495   25.8186 C   0  0  0  0  0  0  0  0  0  0  0  0
   22.9726  -24.6918   26.9646 N   0  0  0  0  0  0  0  0  0  0  0  0
   22.5319  -23.7289   27.8186 C   0  0  0  0  0  0  0  0  0  0  0  0
   22.9882  -23.2539   29.1023 C   0  0  0  0  0  0  0  0  0  0  0  0
   24.1204  -23.7052   29.8114 N   0  0  0  0  0  0  0  0  0  0  0  0
   23.9678  -23.9158   31.2684 C   0  0  0  0  0  0  0  0  0  0  0  0
   25.2482  -24.2050   32.0428 C   0  0  0  0  0  0  0  0  0  0  0  0
   26.1645  -25.1697   31.3090 C   0  0  0  0  0  0  0  0  0  0  0  0
   26.4246  -24.6612   29.8948 C   0  0  0  0  0  0  0  0  0  0  0  0
   27.6474  -24.9110   29.3395 N   0  0  0  0  0  0  0  0  0  0  0  0
   27.8890  -24.4656   28.0891 C   0  0  0  0  0  0  0  0  0  0  0  0
   26.9514  -23.7644   27.3431 C   0  0  0  0  0  0  0  0  0  0  0  0
   25.7044  -23.5083   27.9130 C   0  0  0  0  0  0  0  0  0  0  0  0
   25.4034  -23.9678   29.2163 C   0  0  0  0  0  0  0  0  0  0  0  0
   22.1584  -22.2683   29.5103 N   0  0  0  0  0  0  0  0  0  0  0  0
   21.2368  -22.1093   28.5214 N   0  0  0  0  0  0  0  0  0  0  0  0
   21.4275  -22.9770   27.4848 C   0  0  0  0  0  0  0  0  0  0  0  0
   20.7251  -23.1287   26.3398 N   0  0  0  0  0  0  0  0  0  0  0  0
   19.2108  -23.4675   24.0447 C   0  0  0  0  0  0  0  0  0  0  0  0
   17.9934  -23.9639   24.8204 C   0  0  0  0  0  0  0  0  0  0  0  0
  2  1  1  6
  2  3  1  0
  3  4  2  0
  4  5  1  0
  5  6  2  0
  6  7  1  0
  7  8  2  0
  8  9  1  0
  9 10  1  0
 10 11  1  0
 11 12  1  0
 12 13  1  0
 13 14  1  0
 14 15  2  0
 15 16  1  0
 16 17  2  0
 17 18  1  0
 18 19  1  0
 19 20  1  0
 20 21  1  0
 21 22  1  0
 22 23  1  0
 23 24  2  0
 24 25  1  0
 25 26  2  0
 26 27  1  0
 27 28  2  0
 18 29  2  0
 29 30  1  0
 30 31  1  0
 31 32  2  0
 13 33  1  0
 33 34  1  0
 10  2  1  0
 32 14  1  0
  8  3  1  0
 34 10  1  0
 31 17  1  0
 28 19  1  0
 28 23  1  0
M  END
>  <paper_compound_no>  (1) 
1; GDC-1971, RLY-1971

>  <pIC50>  (1) 
9.0

>  <Align_Method>  (1) 
MCS+constrained

>  <MCS_RMSD>  (1) 
0.0427

>  <MCS_NumAtoms>  (1) 
34

>  <O3A_Score>  (1) 
221.6623

>  <Shape_Tanimoto>  (1) 
0.9819

>  <Best_ConfId>  (1) 
65

>  <N_Undefined_Stereo>  (1) 
0

>  <N_Stereoisomers>  (1) 
1

>  <Chosen_Isomer_SMILES>  (1) 
N[C@@H]1c2ccccc2OC12CCN(c1cnc3c(N4CCCc5ncccc54)n[nH]c3n1)CC2

$$$$
13
     RDKit          3D

 34 40  0  0  0  0  0  0  0  0999 V2000
   15.1858  -26.9069   25.3112 N   0  0  0  0  0  0  0  0  0  0  0  0
   15.7528  -25.7503   24.6241 C   0  0  2  0  0  0  0  0  0  0  0  0
   15.1367  -25.6552   23.2502 C   0  0  0  0  0  0  0  0  0  0  0  0
   13.8700  -25.2039   22.9131 C   0  0  0  0  0  0  0  0  0  0  0  0
   13.4900  -25.2326   21.5698 C   0  0  0  0  0  0  0  0  0  0  0  0
   14.3685  -25.7188   20.5885 C   0  0  0  0  0  0  0  0  0  0  0  0
   15.6386  -26.1843   20.9364 C   0  0  0  0  0  0  0  0  0  0  0  0
   16.0106  -26.1403   22.2692 C   0  0  0  0  0  0  0  0  0  0  0  0
   17.2929  -26.6078   22.8857 C   0  0  0  0  0  0  0  0  0  0  0  0
   17.2807  -25.8531   24.2521 C   0  0  0  0  0  0  0  0  0  0  0  0
   18.1056  -26.6099   25.3183 C   0  0  0  0  0  0  0  0  0  0  0  0
   19.5970  -26.2827   25.2487 C   0  0  0  0  0  0  0  0  0  0  0  0
   19.8229  -24.8462   25.4378 N   0  0  0  0  0  0  0  0  0  0  0  0
   20.7633  -24.4452   26.3931 C   0  0  0  0  0  0  0  0  0  0  0  0
   21.9981  -25.1110   26.5234 C   0  0  0  0  0  0  0  0  0  0  0  0
   22.9881  -24.8131   27.4089 N   0  0  0  0  0  0  0  0  0  0  0  0
   22.6786  -23.7414   28.1906 C   0  0  0  0  0  0  0  0  0  0  0  0
   23.3558  -23.0509   29.2534 C   0  0  0  0  0  0  0  0  0  0  0  0
   24.5893  -23.3789   29.7579 N   0  0  0  0  0  0  0  0  0  0  0  0
   24.8052  -23.1379   31.1935 C   0  0  0  0  0  0  0  0  0  0  0  0
   25.5520  -24.3106   31.8134 C   0  0  0  0  0  0  0  0  0  0  0  0
   26.9360  -24.4055   31.1997 C   0  0  0  0  0  0  0  0  0  0  0  0
   26.9016  -24.2693   29.7019 C   0  0  0  0  0  0  0  0  0  0  0  0
   28.0533  -24.6320   29.0706 N   0  0  0  0  0  0  0  0  0  0  0  0
   28.0961  -24.4815   27.7338 C   0  0  0  0  0  0  0  0  0  0  0  0
   27.0520  -23.9678   26.9928 C   0  0  0  0  0  0  0  0  0  0  0  0
   25.8866  -23.5943   27.6615 C   0  0  0  0  0  0  0  0  0  0  0  0
   25.7662  -23.7463   29.0495 C   0  0  0  0  0  0  0  0  0  0  0  0
   22.5753  -22.0711   29.7514 N   0  0  0  0  0  0  0  0  0  0  0  0
   21.4713  -22.1015   28.9819 N   0  0  0  0  0  0  0  0  0  0  0  0
   21.4671  -23.0869   28.0477 C   0  0  0  0  0  0  0  0  0  0  0  0
   20.4821  -23.3748   27.1737 N   0  0  0  0  0  0  0  0  0  0  0  0
   18.6798  -23.9480   25.2538 C   0  0  0  0  0  0  0  0  0  0  0  0
   17.8691  -24.4158   24.0461 C   0  0  0  0  0  0  0  0  0  0  0  0
  2  1  1  6
  2  3  1  0
  3  4  2  0
  4  5  1  0
  5  6  2  0
  6  7  1  0
  7  8  2  0
  8  9  1  0
  9 10  1  0
 10 11  1  0
 11 12  1  0
 12 13  1  0
 13 14  1  0
 14 15  2  0
 15 16  1  0
 16 17  2  0
 17 18  1  0
 18 19  1  0
 19 20  1  0
 20 21  1  0
 21 22  1  0
 22 23  1  0
 23 24  2  0
 24 25  1  0
 25 26  2  0
 26 27  1  0
 27 28  2  0
 18 29  2  0
 29 30  1  0
 30 31  1  0
 31 32  2  0
 13 33  1  0
 33 34  1  0
 10  2  1  0
 32 14  1  0
  8  3  1  0
 34 10  1  0
 31 17  1  0
 28 19  1  0
 28 23  1  0
M  END
>  <paper_compound_no>  (2) 
13

>  <pIC50>  (2) 
9.0

>  <Align_Method>  (2) 
MCS+constrained

>  <MCS_RMSD>  (2) 
0.8698

>  <MCS_NumAtoms>  (2) 
33

>  <O3A_Score>  (2) 
162.4745

>  <Shape_Tanimoto>  (2) 
0.6275

>  <Best_ConfId>  (2) 
18

>  <N_Undefined_Stereo>  (2) 
0

>  <N_Stereoisomers>  (2) 
1

>  <Chosen_Isomer_SMILES>  (2) 
N[C@@H]1c2ccccc2CC12CCN(c1cnc3c(N4CCCc5ncccc54)n[nH]c3n1)CC2

$$$$
5
     RDKit          3D

 26 29  0  0  0  0  0  0  0  0999 V2000
   16.9797  -25.4961   23.1182 C   0  0  0  0  0  0  0  0  0  0  0  0
   17.6379  -25.4008   24.5117 C   0  0  0  0  0  0  0  0  0  0  0  0
   16.6410  -25.8902   25.4814 N   0  0  0  0  0  0  0  0  0  0  0  0
   18.8659  -26.2948   24.5726 C   0  0  0  0  0  0  0  0  0  0  0  0
   20.0891  -25.7075   23.8313 C   0  0  0  0  0  0  0  0  0  0  0  0
   20.3325  -24.3675   24.3727 N   0  0  0  0  0  0  0  0  0  0  0  0
   21.1281  -24.1205   25.5056 C   0  0  0  0  0  0  0  0  0  0  0  0
   22.2637  -24.8604   25.8253 C   0  0  0  0  0  0  0  0  0  0  0  0
   22.9718  -24.6905   26.9663 N   0  0  0  0  0  0  0  0  0  0  0  0
   22.5278  -23.7306   27.8164 C   0  0  0  0  0  0  0  0  0  0  0  0
   22.9585  -23.2520   29.0806 C   0  0  0  0  0  0  0  0  0  0  0  0
   24.2993  -23.7888   30.0635 S   0  0  0  0  0  0  0  0  0  0  0  0
   25.4160  -24.5202   28.8723 C   0  0  0  0  0  0  0  0  0  0  0  0
   26.2288  -23.6593   28.1297 C   0  0  0  0  0  0  0  0  0  0  0  0
   27.1081  -24.2063   27.2139 C   0  0  0  0  0  0  0  0  0  0  0  0
   27.2404  -25.5311   26.9978 N   0  0  0  0  0  0  0  0  0  0  0  0
   26.4597  -26.3596   27.7212 C   0  0  0  0  0  0  0  0  0  0  0  0
   26.6162  -27.7149   27.4181 N   0  0  0  0  0  0  0  0  0  0  0  0
   25.5320  -25.9023   28.6684 C   0  0  0  0  0  0  0  0  0  0  0  0
   24.5873  -27.0456   29.5690 Cl  0  0  0  0  0  0  0  0  0  0  0  0
   22.1589  -22.2616   29.5077 N   0  0  0  0  0  0  0  0  0  0  0  0
   21.2266  -22.1112   28.5281 N   0  0  0  0  0  0  0  0  0  0  0  0
   21.4215  -22.9803   27.4906 C   0  0  0  0  0  0  0  0  0  0  0  0
   20.7192  -23.1379   26.3507 N   0  0  0  0  0  0  0  0  0  0  0  0
   19.2117  -23.4593   24.0563 C   0  0  0  0  0  0  0  0  0  0  0  0
   17.9807  -23.9581   24.8380 C   0  0  0  0  0  0  0  0  0  0  0  0
  1  2  1  0
  2  3  1  0
  2  4  1  0
  4  5  1  0
  5  6  1  0
  6  7  1  0
  7  8  2  0
  8  9  1  0
  9 10  2  0
 10 11  1  0
 11 12  1  0
 12 13  1  0
 13 14  2  0
 14 15  1  0
 15 16  2  0
 16 17  1  0
 17 18  1  0
 17 19  2  0
 19 20  1  0
 11 21  2  0
 21 22  1  0
 22 23  1  0
 23 24  2  0
  6 25  1  0
 25 26  1  0
 26  2  1  0
 24  7  1  0
 23 10  1  0
 19 13  1  0
M  END
>  <paper_compound_no>  (3) 
5

>  <pIC50>  (3) 
8.52

>  <Align_Method>  (3) 
MCS+constrained

>  <MCS_RMSD>  (3) 
0.0509

>  <MCS_NumAtoms>  (3) 
15

>  <O3A_Score>  (3) 
130.0345

>  <Shape_Tanimoto>  (3) 
0.5536

>  <Best_ConfId>  (3) 
189

>  <N_Undefined_Stereo>  (3) 
0

>  <N_Stereoisomers>  (3) 
1

>  <Chosen_Isomer_SMILES>  (3) 
CC1(N)CCN(c2cnc3c(Sc4ccnc(N)c4Cl)n[nH]c3n2)CC1

$$$$
14
     RDKit          3D

 34 40  0  0  0  0  0  0  0  0999 V2000
   16.4048  -26.9790   25.8674 N   0  0  0  0  0  0  0  0  0  0  0  0
   16.3847  -25.6960   25.1642 C   0  0  2  0  0  0  0  0  0  0  0  0
   15.2323  -25.6985   24.2044 C   0  0  0  0  0  0  0  0  0  0  0  0
   15.7908  -25.6400   22.8458 C   0  0  0  0  0  0  0  0  0  0  0  0
   15.0630  -25.7380   21.6624 C   0  0  0  0  0  0  0  0  0  0  0  0
   15.7296  -25.5893   20.4552 C   0  0  0  0  0  0  0  0  0  0  0  0
   17.0972  -25.3280   20.4590 C   0  0  0  0  0  0  0  0  0  0  0  0
   17.8032  -25.2292   21.6677 C   0  0  0  0  0  0  0  0  0  0  0  0
   17.1545  -25.4047   22.8901 C   0  0  0  0  0  0  0  0  0  0  0  0
   17.6587  -25.3655   24.3621 C   0  0  0  0  0  0  0  0  0  0  0  0
   18.8523  -26.2834   24.5468 C   0  0  0  0  0  0  0  0  0  0  0  0
   20.1218  -25.7388   23.8864 C   0  0  0  0  0  0  0  0  0  0  0  0
   20.3684  -24.3626   24.3406 N   0  0  0  0  0  0  0  0  0  0  0  0
   21.1497  -24.1153   25.4852 C   0  0  0  0  0  0  0  0  0  0  0  0
   22.2804  -24.8553   25.8102 C   0  0  0  0  0  0  0  0  0  0  0  0
   22.9725  -24.6992   26.9608 N   0  0  0  0  0  0  0  0  0  0  0  0
   22.5257  -23.7390   27.8145 C   0  0  0  0  0  0  0  0  0  0  0  0
   22.9794  -23.2596   29.0979 C   0  0  0  0  0  0  0  0  0  0  0  0
   24.1093  -23.7094   29.8092 N   0  0  0  0  0  0  0  0  0  0  0  0
   23.9553  -23.9223   31.2658 C   0  0  0  0  0  0  0  0  0  0  0  0
   25.2464  -24.1733   32.0374 C   0  0  0  0  0  0  0  0  0  0  0  0
   26.1527  -25.1604   31.3164 C   0  0  0  0  0  0  0  0  0  0  0  0
   26.4162  -24.6603   29.8985 C   0  0  0  0  0  0  0  0  0  0  0  0
   27.6416  -24.9070   29.3471 N   0  0  0  0  0  0  0  0  0  0  0  0
   27.8861  -24.4619   28.0938 C   0  0  0  0  0  0  0  0  0  0  0  0
   26.9482  -23.7658   27.3466 C   0  0  0  0  0  0  0  0  0  0  0  0
   25.6982  -23.5127   27.9134 C   0  0  0  0  0  0  0  0  0  0  0  0
   25.3944  -23.9708   29.2163 C   0  0  0  0  0  0  0  0  0  0  0  0
   22.1483  -22.2732   29.5009 N   0  0  0  0  0  0  0  0  0  0  0  0
   21.2275  -22.1187   28.5108 N   0  0  0  0  0  0  0  0  0  0  0  0
   21.4211  -22.9893   27.4781 C   0  0  0  0  0  0  0  0  0  0  0  0
   20.7262  -23.1422   26.3317 N   0  0  0  0  0  0  0  0  0  0  0  0
   19.2427  -23.4499   24.0670 C   0  0  0  0  0  0  0  0  0  0  0  0
   18.0080  -23.9566   24.7885 C   0  0  0  0  0  0  0  0  0  0  0  0
  2  1  1  6
  2  3  1  0
  3  4  1  0
  4  5  2  0
  5  6  1  0
  6  7  2  0
  7  8  1  0
  8  9  2  0
  9 10  1  0
 10 11  1  0
 11 12  1  0
 12 13  1  0
 13 14  1  0
 14 15  2  0
 15 16  1  0
 16 17  2  0
 17 18  1  0
 18 19  1  0
 19 20  1  0
 20 21  1  0
 21 22  1  0
 22 23  1  0
 23 24  2  0
 24 25  1  0
 25 26  2  0
 26 27  1  0
 27 28  2  0
 18 29  2  0
 29 30  1  0
 30 31  1  0
 31 32  2  0
 13 33  1  0
 33 34  1  0
 10  2  1  0
 32 14  1  0
  9  4  1  0
 34 10  1  0
 31 17  1  0
 28 19  1  0
 28 23  1  0
M  END
>  <paper_compound_no>  (4) 
14

>  <pIC50>  (4) 
8.52

>  <Align_Method>  (4) 
MCS+constrained

>  <MCS_RMSD>  (4) 
0.0836

>  <MCS_NumAtoms>  (4) 
28

>  <O3A_Score>  (4) 
197.8301

>  <Shape_Tanimoto>  (4) 
0.8396

>  <Best_ConfId>  (4) 
89

>  <N_Undefined_Stereo>  (4) 
0

>  <N_Stereoisomers>  (4) 
1

>  <Chosen_Isomer_SMILES>  (4) 
N[C@@H]1Cc2ccccc2C12CCN(c1cnc3c(N4CCCc5ncccc54)n[nH]c3n1)CC2

$$$$
11
     RDKit          3D

 31 36  0  0  0  0  0  0  0  0999 V2000
   14.1107  -26.6625   24.1921 C   0  0  0  0  0  0  0  0  0  0  0  0
   15.3322  -25.7732   24.0032 C   0  0  2  0  0  0  0  0  0  0  0  0
   16.0602  -26.1913   22.8582 O   0  0  0  0  0  0  0  0  0  0  0  0
   17.2450  -25.4122   22.9344 C   0  0  0  0  0  0  0  0  0  0  0  0
   17.6433  -25.3778   24.4498 C   0  0  0  0  0  0  0  0  0  0  0  0
   18.8602  -26.2894   24.5804 C   0  0  0  0  0  0  0  0  0  0  0  0
   20.1063  -25.7176   23.8542 C   0  0  0  0  0  0  0  0  0  0  0  0
   20.3545  -24.3551   24.3489 N   0  0  0  0  0  0  0  0  0  0  0  0
   21.1380  -24.1077   25.4924 C   0  0  0  0  0  0  0  0  0  0  0  0
   22.2710  -24.8491   25.8174 C   0  0  0  0  0  0  0  0  0  0  0  0
   22.9719  -24.6902   26.9632 N   0  0  0  0  0  0  0  0  0  0  0  0
   22.5315  -23.7281   27.8179 C   0  0  0  0  0  0  0  0  0  0  0  0
   22.9879  -23.2526   29.1022 C   0  0  0  0  0  0  0  0  0  0  0  0
   24.1193  -23.7047   29.8124 N   0  0  0  0  0  0  0  0  0  0  0  0
   23.9653  -23.9245   31.2682 C   0  0  0  0  0  0  0  0  0  0  0  0
   25.2550  -24.1929   32.0378 C   0  0  0  0  0  0  0  0  0  0  0  0
   26.1605  -25.1738   31.3069 C   0  0  0  0  0  0  0  0  0  0  0  0
   26.4227  -24.6643   29.8925 C   0  0  0  0  0  0  0  0  0  0  0  0
   27.6454  -24.9142   29.3365 N   0  0  0  0  0  0  0  0  0  0  0  0
   27.8882  -24.4660   28.0856 C   0  0  0  0  0  0  0  0  0  0  0  0
   26.9507  -23.7624   27.3429 C   0  0  0  0  0  0  0  0  0  0  0  0
   25.7037  -23.5057   27.9141 C   0  0  0  0  0  0  0  0  0  0  0  0
   25.4021  -23.9677   29.2162 C   0  0  0  0  0  0  0  0  0  0  0  0
   22.1574  -22.2672   29.5090 N   0  0  0  0  0  0  0  0  0  0  0  0
   21.2350  -22.1093   28.5206 N   0  0  0  0  0  0  0  0  0  0  0  0
   21.4261  -22.9775   27.4847 C   0  0  0  0  0  0  0  0  0  0  0  0
   20.7236  -23.1309   26.3401 N   0  0  0  0  0  0  0  0  0  0  0  0
   19.2145  -23.4639   24.0544 C   0  0  0  0  0  0  0  0  0  0  0  0
   18.0028  -23.9641   24.8475 C   0  0  0  0  0  0  0  0  0  0  0  0
   16.3251  -25.6969   25.1521 C   0  0  2  0  0  0  0  0  0  0  0  0
   16.3587  -26.9388   25.9110 N   0  0  0  0  0  0  0  0  0  0  0  0
  2  1  1  1
  2  3  1  0
  3  4  1  0
  4  5  1  0
  5  6  1  0
  6  7  1  0
  7  8  1  0
  8  9  1  0
  9 10  2  0
 10 11  1  0
 11 12  2  0
 12 13  1  0
 13 14  1  0
 14 15  1  0
 15 16  1  0
 16 17  1  0
 17 18  1  0
 18 19  2  0
 19 20  1  0
 20 21  2  0
 21 22  1  0
 22 23  2  0
 13 24  2  0
 24 25  1  0
 25 26  1  0
 26 27  2  0
  8 28  1  0
 28 29  1  0
  5 30  1  0
 30 31  1  6
 30  2  1  0
 29  5  1  0
 27  9  1  0
 26 12  1  0
 23 14  1  0
 23 18  1  0
M  END
>  <paper_compound_no>  (5) 
11

>  <pIC50>  (5) 
8.3

>  <Align_Method>  (5) 
MCS+constrained

>  <MCS_RMSD>  (5) 
0.0464

>  <MCS_NumAtoms>  (5) 
28

>  <O3A_Score>  (5) 
197.1136

>  <Shape_Tanimoto>  (5) 
0.8642

>  <Best_ConfId>  (5) 
133

>  <N_Undefined_Stereo>  (5) 
0

>  <N_Stereoisomers>  (5) 
1

>  <Chosen_Isomer_SMILES>  (5) 
C[C@@H]1OCC2(CCN(c3cnc4c(N5CCCc6ncccc65)n[nH]c4n3)CC2)[C@@H]1N

$$$$
6
     RDKit          3D

 26 29  0  0  0  0  0  0  0  0999 V2000
   16.9692  -25.4987   23.1314 C   0  0  0  0  0  0  0  0  0  0  0  0
   17.6366  -25.4011   24.5205 C   0  0  0  0  0  0  0  0  0  0  0  0
   16.6471  -25.8895   25.4981 N   0  0  0  0  0  0  0  0  0  0  0  0
   18.8652  -26.2954   24.5719 C   0  0  0  0  0  0  0  0  0  0  0  0
   20.0884  -25.7072   23.8308 C   0  0  0  0  0  0  0  0  0  0  0  0
   20.3332  -24.3680   24.3720 N   0  0  0  0  0  0  0  0  0  0  0  0
   21.1305  -24.1183   25.5032 C   0  0  0  0  0  0  0  0  0  0  0  0
   22.2655  -24.8596   25.8248 C   0  0  0  0  0  0  0  0  0  0  0  0
   22.9743  -24.6930   26.9683 N   0  0  0  0  0  0  0  0  0  0  0  0
   22.5283  -23.7306   27.8147 C   0  0  0  0  0  0  0  0  0  0  0  0
   22.9510  -23.2544   29.0765 C   0  0  0  0  0  0  0  0  0  0  0  0
   24.0047  -23.6926   29.8032 O   0  0  0  0  0  0  0  0  0  0  0  0
   24.3118  -23.0867   30.9973 C   0  0  0  0  0  0  0  0  0  0  0  0
   23.7777  -23.6213   32.1642 C   0  0  0  0  0  0  0  0  0  0  0  0
   24.1198  -23.0183   33.3583 C   0  0  0  0  0  0  0  0  0  0  0  0
   24.9491  -21.9555   33.4546 N   0  0  0  0  0  0  0  0  0  0  0  0
   25.4713  -21.4546   32.3159 C   0  0  0  0  0  0  0  0  0  0  0  0
   26.3336  -20.3499   32.4595 N   0  0  0  0  0  0  0  0  0  0  0  0
   25.1817  -21.9986   31.0573 C   0  0  0  0  0  0  0  0  0  0  0  0
   25.9020  -21.3458   29.6256 Cl  0  0  0  0  0  0  0  0  0  0  0  0
   22.1550  -22.2654   29.5144 N   0  0  0  0  0  0  0  0  0  0  0  0
   21.2270  -22.1087   28.5277 N   0  0  0  0  0  0  0  0  0  0  0  0
   21.4240  -22.9776   27.4889 C   0  0  0  0  0  0  0  0  0  0  0  0
   20.7222  -23.1351   26.3476 N   0  0  0  0  0  0  0  0  0  0  0  0
   19.2113  -23.4613   24.0532 C   0  0  0  0  0  0  0  0  0  0  0  0
   17.9813  -23.9571   24.8395 C   0  0  0  0  0  0  0  0  0  0  0  0
  1  2  1  0
  2  3  1  0
  2  4  1  0
  4  5  1  0
  5  6  1  0
  6  7  1  0
  7  8  2  0
  8  9  1  0
  9 10  2  0
 10 11  1  0
 11 12  1  0
 12 13  1  0
 13 14  2  0
 14 15  1  0
 15 16  2  0
 16 17  1  0
 17 18  1  0
 17 19  2  0
 19 20  1  0
 11 21  2  0
 21 22  1  0
 22 23  1  0
 23 24  2  0
  6 25  1  0
 25 26  1  0
 26  2  1  0
 24  7  1  0
 23 10  1  0
 19 13  1  0
M  END
>  <paper_compound_no>  (6) 
6

>  <pIC50>  (6) 
8.0

>  <Align_Method>  (6) 
MCS+constrained

>  <MCS_RMSD>  (6) 
0.0514

>  <MCS_NumAtoms>  (6) 
15

>  <O3A_Score>  (6) 
119.3049

>  <Shape_Tanimoto>  (6) 
0.4782

>  <Best_ConfId>  (6) 
39

>  <N_Undefined_Stereo>  (6) 
0

>  <N_Stereoisomers>  (6) 
1

>  <Chosen_Isomer_SMILES>  (6) 
CC1(N)CCN(c2cnc3c(Oc4ccnc(N)c4Cl)n[nH]c3n2)CC1

$$$$
15
     RDKit          3D

 35 41  0  0  0  0  0  0  0  0999 V2000
   18.2507  -25.5165   21.7382 C   0  0  0  0  0  0  0  0  0  0  0  0
   17.3912  -25.3113   22.8934 N   0  0  0  0  0  0  0  0  0  0  0  0
   16.0796  -25.6968   22.7646 C   0  0  0  0  0  0  0  0  0  0  0  0
   15.4205  -25.8584   21.5579 C   0  0  0  0  0  0  0  0  0  0  0  0
   14.0468  -26.0251   21.5445 C   0  0  0  0  0  0  0  0  0  0  0  0
   13.3370  -26.0439   22.7434 C   0  0  0  0  0  0  0  0  0  0  0  0
   14.0049  -25.9140   23.9631 C   0  0  0  0  0  0  0  0  0  0  0  0
   15.3882  -25.7596   23.9606 C   0  0  0  0  0  0  0  0  0  0  0  0
   16.3389  -25.6714   25.1029 C   0  0  1  0  0  0  0  0  0  0  0  0
   16.3573  -26.9153   25.8729 N   0  0  0  0  0  0  0  0  0  0  0  0
   17.6881  -25.3633   24.3750 C   0  0  0  0  0  0  0  0  0  0  0  0
   18.8520  -26.3026   24.5801 C   0  0  0  0  0  0  0  0  0  0  0  0
   20.1374  -25.7604   23.9605 C   0  0  0  0  0  0  0  0  0  0  0  0
   20.3706  -24.3612   24.3496 N   0  0  0  0  0  0  0  0  0  0  0  0
   21.1570  -24.0993   25.4878 C   0  0  0  0  0  0  0  0  0  0  0  0
   22.2899  -24.8372   25.8070 C   0  0  0  0  0  0  0  0  0  0  0  0
   22.9785  -24.6865   26.9582 N   0  0  0  0  0  0  0  0  0  0  0  0
   22.5300  -23.7306   27.8154 C   0  0  0  0  0  0  0  0  0  0  0  0
   22.9826  -23.2593   29.1016 C   0  0  0  0  0  0  0  0  0  0  0  0
   24.1142  -23.7122   29.8102 N   0  0  0  0  0  0  0  0  0  0  0  0
   23.9582  -23.9390   31.2647 C   0  0  0  0  0  0  0  0  0  0  0  0
   25.2490  -24.1901   32.0367 C   0  0  0  0  0  0  0  0  0  0  0  0
   26.1614  -25.1679   31.3096 C   0  0  0  0  0  0  0  0  0  0  0  0
   26.4220  -24.6618   29.8935 C   0  0  0  0  0  0  0  0  0  0  0  0
   27.6467  -24.9060   29.3401 N   0  0  0  0  0  0  0  0  0  0  0  0
   27.8901  -24.4557   28.0900 C   0  0  0  0  0  0  0  0  0  0  0  0
   26.9515  -23.7556   27.3459 C   0  0  0  0  0  0  0  0  0  0  0  0
   25.7019  -23.5050   27.9140 C   0  0  0  0  0  0  0  0  0  0  0  0
   25.3990  -23.9695   29.2152 C   0  0  0  0  0  0  0  0  0  0  0  0
   22.1492  -22.2770   29.5103 N   0  0  0  0  0  0  0  0  0  0  0  0
   21.2287  -22.1163   28.5198 N   0  0  0  0  0  0  0  0  0  0  0  0
   21.4244  -22.9802   27.4820 C   0  0  0  0  0  0  0  0  0  0  0  0
   20.7294  -23.1302   26.3348 N   0  0  0  0  0  0  0  0  0  0  0  0
   19.2335  -23.4558   24.0943 C   0  0  0  0  0  0  0  0  0  0  0  0
   18.0076  -23.9609   24.8118 C   0  0  0  0  0  0  0  0  0  0  0  0
  1  2  1  0
  2  3  1  0
  3  4  2  0
  4  5  1  0
  5  6  2  0
  6  7  1  0
  7  8  2  0
  8  9  1  0
  9 10  1  6
  9 11  1  0
 11 12  1  0
 12 13  1  0
 13 14  1  0
 14 15  1  0
 15 16  2  0
 16 17  1  0
 17 18  2  0
 18 19  1  0
 19 20  1  0
 20 21  1  0
 21 22  1  0
 22 23  1  0
 23 24  1  0
 24 25  2  0
 25 26  1  0
 26 27  2  0
 27 28  1  0
 28 29  2  0
 19 30  2  0
 30 31  1  0
 31 32  1  0
 32 33  2  0
 14 34  1  0
 34 35  1  0
 11  2  1  0
 33 15  1  0
  8  3  1  0
 35 11  1  0
 32 18  1  0
 29 20  1  0
 29 24  1  0
M  END
>  <paper_compound_no>  (7) 
15

>  <pIC50>  (7) 
7.89

>  <Align_Method>  (7) 
MCS+constrained

>  <MCS_RMSD>  (7) 
0.0620

>  <MCS_NumAtoms>  (7) 
33

>  <O3A_Score>  (7) 
220.6160

>  <Shape_Tanimoto>  (7) 
0.9329

>  <Best_ConfId>  (7) 
44

>  <N_Undefined_Stereo>  (7) 
0

>  <N_Stereoisomers>  (7) 
1

>  <Chosen_Isomer_SMILES>  (7) 
CN1c2ccccc2[C@@H](N)C12CCN(c1cnc3c(N4CCCc5ncccc54)n[nH]c3n1)CC2

$$$$
2
     RDKit          3D

 25 28  0  0  0  0  0  0  0  0999 V2000
   16.9678  -25.4950   23.1310 C   0  0  0  0  0  0  0  0  0  0  0  0
   17.6364  -25.3965   24.5198 C   0  0  0  0  0  0  0  0  0  0  0  0
   16.6453  -25.8814   25.4979 N   0  0  0  0  0  0  0  0  0  0  0  0
   18.8616  -26.2951   24.5696 C   0  0  0  0  0  0  0  0  0  0  0  0
   20.0892  -25.7103   23.8334 C   0  0  0  0  0  0  0  0  0  0  0  0
   20.3334  -24.3688   24.3720 N   0  0  0  0  0  0  0  0  0  0  0  0
   21.1284  -24.1216   25.5058 C   0  0  0  0  0  0  0  0  0  0  0  0
   22.2646  -24.8605   25.8260 C   0  0  0  0  0  0  0  0  0  0  0  0
   22.9714  -24.6928   26.9712 N   0  0  0  0  0  0  0  0  0  0  0  0
   22.5263  -23.7284   27.8152 C   0  0  0  0  0  0  0  0  0  0  0  0
   22.9685  -23.2500   29.0808 C   0  0  0  0  0  0  0  0  0  0  0  0
   24.0941  -23.7117   29.8815 C   0  0  0  0  0  0  0  0  0  0  0  0
   23.8156  -24.2425   31.1545 C   0  0  0  0  0  0  0  0  0  0  0  0
   24.8399  -24.7252   31.9667 C   0  0  0  0  0  0  0  0  0  0  0  0
   26.1562  -24.6777   31.5168 C   0  0  0  0  0  0  0  0  0  0  0  0
   26.4521  -24.1386   30.2595 C   0  0  0  0  0  0  0  0  0  0  0  0
   28.1204  -24.1064   29.7951 Cl  0  0  0  0  0  0  0  0  0  0  0  0
   25.4267  -23.6469   29.4334 C   0  0  0  0  0  0  0  0  0  0  0  0
   25.8181  -22.9196   27.9032 Cl  0  0  0  0  0  0  0  0  0  0  0  0
   22.1546  -22.2627   29.5077 N   0  0  0  0  0  0  0  0  0  0  0  0
   21.2260  -22.1107   28.5256 N   0  0  0  0  0  0  0  0  0  0  0  0
   21.4191  -22.9806   27.4912 C   0  0  0  0  0  0  0  0  0  0  0  0
   20.7168  -23.1407   26.3522 N   0  0  0  0  0  0  0  0  0  0  0  0
   19.2151  -23.4619   24.0490 C   0  0  0  0  0  0  0  0  0  0  0  0
   17.9827  -23.9526   24.8343 C   0  0  0  0  0  0  0  0  0  0  0  0
  1  2  1  0
  2  3  1  0
  2  4  1  0
  4  5  1  0
  5  6  1  0
  6  7  1  0
  7  8  2  0
  8  9  1  0
  9 10  2  0
 10 11  1  0
 11 12  1  0
 12 13  2  0
 13 14  1  0
 14 15  2  0
 15 16  1  0
 16 17  1  0
 16 18  2  0
 18 19  1  0
 11 20  2  0
 20 21  1  0
 21 22  1  0
 22 23  2  0
  6 24  1  0
 24 25  1  0
 25  2  1  0
 23  7  1  0
 22 10  1  0
 18 12  1  0
M  END
>  <paper_compound_no>  (8) 
2

>  <pIC50>  (8) 
7.74

>  <Align_Method>  (8) 
MCS+constrained

>  <MCS_RMSD>  (8) 
0.0508

>  <MCS_NumAtoms>  (8) 
15

>  <O3A_Score>  (8) 
150.0260

>  <Shape_Tanimoto>  (8) 
0.6644

>  <Best_ConfId>  (8) 
68

>  <N_Undefined_Stereo>  (8) 
0

>  <N_Stereoisomers>  (8) 
1

>  <Chosen_Isomer_SMILES>  (8) 
CC1(N)CCN(c2cnc3c(-c4cccc(Cl)c4Cl)n[nH]c3n2)CC1

$$$$
10
     RDKit          3D

 28 32  0  0  0  0  0  0  0  0999 V2000
   16.6209  -25.9413   25.5630 C   0  0  0  0  0  0  0  0  0  0  0  0
   17.6325  -25.4182   24.5184 C   0  0  0  0  0  0  0  0  0  0  0  0
   17.0036  -25.5381   23.0935 C   0  0  0  0  0  0  0  0  0  0  0  0
   15.8208  -24.7077   22.8862 N   0  0  0  0  0  0  0  0  0  0  0  0
   18.8781  -26.3006   24.5686 C   0  0  0  0  0  0  0  0  0  0  0  0
   20.0996  -25.7053   23.8306 C   0  0  0  0  0  0  0  0  0  0  0  0
   20.3335  -24.3625   24.3685 N   0  0  0  0  0  0  0  0  0  0  0  0
   21.1296  -24.1116   25.5011 C   0  0  0  0  0  0  0  0  0  0  0  0
   22.2654  -24.8514   25.8215 C   0  0  0  0  0  0  0  0  0  0  0  0
   22.9718  -24.6882   26.9643 N   0  0  0  0  0  0  0  0  0  0  0  0
   22.5326  -23.7264   27.8203 C   0  0  0  0  0  0  0  0  0  0  0  0
   22.9899  -23.2523   29.1052 C   0  0  0  0  0  0  0  0  0  0  0  0
   24.1222  -23.7057   29.8128 N   0  0  0  0  0  0  0  0  0  0  0  0
   23.9724  -23.9237   31.2696 C   0  0  0  0  0  0  0  0  0  0  0  0
   25.2618  -24.1959   32.0373 C   0  0  0  0  0  0  0  0  0  0  0  0
   26.1670  -25.1736   31.3027 C   0  0  0  0  0  0  0  0  0  0  0  0
   26.4262  -24.6626   29.8876 C   0  0  0  0  0  0  0  0  0  0  0  0
   27.6491  -24.9104   29.3320 N   0  0  0  0  0  0  0  0  0  0  0  0
   27.8883  -24.4607   28.0820 C   0  0  0  0  0  0  0  0  0  0  0  0
   26.9489  -23.7587   27.3397 C   0  0  0  0  0  0  0  0  0  0  0  0
   25.7015  -23.5042   27.9105 C   0  0  0  0  0  0  0  0  0  0  0  0
   25.4035  -23.9678   29.2135 C   0  0  0  0  0  0  0  0  0  0  0  0
   22.1589  -22.2689   29.5157 N   0  0  0  0  0  0  0  0  0  0  0  0
   21.2347  -22.1110   28.5285 N   0  0  0  0  0  0  0  0  0  0  0  0
   21.4258  -22.9771   27.4909 C   0  0  0  0  0  0  0  0  0  0  0  0
   20.7212  -23.1326   26.3495 N   0  0  0  0  0  0  0  0  0  0  0  0
   19.1999  -23.4640   24.0583 C   0  0  0  0  0  0  0  0  0  0  0  0
   17.9826  -23.9735   24.8519 C   0  0  0  0  0  0  0  0  0  0  0  0
  1  2  1  0
  2  3  1  0
  3  4  1  0
  2  5  1  0
  5  6  1  0
  6  7  1  0
  7  8  1  0
  8  9  2  0
  9 10  1  0
 10 11  2  0
 11 12  1  0
 12 13  1  0
 13 14  1  0
 14 15  1  0
 15 16  1  0
 16 17  1  0
 17 18  2  0
 18 19  1  0
 19 20  2  0
 20 21  1  0
 21 22  2  0
 12 23  2  0
 23 24  1  0
 24 25  1  0
 25 26  2  0
  7 27  1  0
 27 28  1  0
 28  2  1  0
 26  8  1  0
 25 11  1  0
 22 13  1  0
 22 17  1  0
M  END
>  <paper_compound_no>  (9) 
10

>  <pIC50>  (9) 
7.51

>  <Align_Method>  (9) 
MCS+constrained

>  <MCS_RMSD>  (9) 
0.0432

>  <MCS_NumAtoms>  (9) 
25

>  <O3A_Score>  (9) 
173.1965

>  <Shape_Tanimoto>  (9) 
0.7990

>  <Best_ConfId>  (9) 
17

>  <N_Undefined_Stereo>  (9) 
0

>  <N_Stereoisomers>  (9) 
1

>  <Chosen_Isomer_SMILES>  (9) 
CC1(CN)CCN(c2cnc3c(N4CCCc5ncccc54)n[nH]c3n2)CC1

$$$$
4
     RDKit          3D

 25 28  0  0  0  0  0  0  0  0999 V2000
   16.9641  -25.5014   23.1405 C   0  0  0  0  0  0  0  0  0  0  0  0
   17.6381  -25.4048   24.5267 C   0  0  0  0  0  0  0  0  0  0  0  0
   16.6543  -25.8972   25.5075 N   0  0  0  0  0  0  0  0  0  0  0  0
   18.8689  -26.2963   24.5681 C   0  0  0  0  0  0  0  0  0  0  0  0
   20.0897  -25.7035   23.8268 C   0  0  0  0  0  0  0  0  0  0  0  0
   20.3329  -24.3650   24.3707 N   0  0  0  0  0  0  0  0  0  0  0  0
   21.1314  -24.1156   25.5013 C   0  0  0  0  0  0  0  0  0  0  0  0
   22.2647  -24.8582   25.8233 C   0  0  0  0  0  0  0  0  0  0  0  0
   22.9729  -24.6922   26.9653 N   0  0  0  0  0  0  0  0  0  0  0  0
   22.5293  -23.7302   27.8154 C   0  0  0  0  0  0  0  0  0  0  0  0
   22.9504  -23.2585   29.0821 C   0  0  0  0  0  0  0  0  0  0  0  0
   24.2866  -23.8168   30.0563 S   0  0  0  0  0  0  0  0  0  0  0  0
   25.5707  -24.0595   28.8343 C   0  0  0  0  0  0  0  0  0  0  0  0
   26.1691  -22.9210   28.2694 C   0  0  0  0  0  0  0  0  0  0  0  0
   27.1827  -23.0442   27.3163 C   0  0  0  0  0  0  0  0  0  0  0  0
   27.6161  -24.3065   26.9202 C   0  0  0  0  0  0  0  0  0  0  0  0
   27.0384  -25.4462   27.4796 C   0  0  0  0  0  0  0  0  0  0  0  0
   26.0220  -25.3278   28.4352 C   0  0  0  0  0  0  0  0  0  0  0  0
   25.3713  -26.7950   29.0830 Cl  0  0  0  0  0  0  0  0  0  0  0  0
   22.1507  -22.2692   29.5131 N   0  0  0  0  0  0  0  0  0  0  0  0
   21.2259  -22.1109   28.5273 N   0  0  0  0  0  0  0  0  0  0  0  0
   21.4259  -22.9759   27.4869 C   0  0  0  0  0  0  0  0  0  0  0  0
   20.7254  -23.1312   26.3448 N   0  0  0  0  0  0  0  0  0  0  0  0
   19.2076  -23.4614   24.0571 C   0  0  0  0  0  0  0  0  0  0  0  0
   17.9802  -23.9602   24.8452 C   0  0  0  0  0  0  0  0  0  0  0  0
  1  2  1  0
  2  3  1  0
  2  4  1  0
  4  5  1  0
  5  6  1  0
  6  7  1  0
  7  8  2  0
  8  9  1  0
  9 10  2  0
 10 11  1  0
 11 12  1  0
 12 13  1  0
 13 14  2  0
 14 15  1  0
 15 16  2  0
 16 17  1  0
 17 18  2  0
 18 19  1  0
 11 20  2  0
 20 21  1  0
 21 22  1  0
 22 23  2  0
  6 24  1  0
 24 25  1  0
 25  2  1  0
 23  7  1  0
 22 10  1  0
 18 13  1  0
M  END
>  <paper_compound_no>  (10) 
4

>  <pIC50>  (10) 
7.42

>  <Align_Method>  (10) 
MCS+constrained

>  <MCS_RMSD>  (10) 
0.0508

>  <MCS_NumAtoms>  (10) 
15

>  <O3A_Score>  (10) 
129.1471

>  <Shape_Tanimoto>  (10) 
0.5864

>  <Best_ConfId>  (10) 
147

>  <N_Undefined_Stereo>  (10) 
0

>  <N_Stereoisomers>  (10) 
1

>  <Chosen_Isomer_SMILES>  (10) 
CC1(N)CCN(c2cnc3c(Sc4ccccc4Cl)n[nH]c3n2)CC1

$$$$
9
     RDKit          3D

 27 31  0  0  0  0  0  0  0  0999 V2000
   16.5795  -25.9306   25.5122 C   0  0  0  0  0  0  0  0  0  0  0  0
   17.6379  -25.4094   24.5260 C   0  0  0  0  0  0  0  0  0  0  0  0
   17.0521  -25.4774   23.1709 N   0  0  0  0  0  0  0  0  0  0  0  0
   18.8713  -26.2971   24.5677 C   0  0  0  0  0  0  0  0  0  0  0  0
   20.0917  -25.7043   23.8274 C   0  0  0  0  0  0  0  0  0  0  0  0
   20.3352  -24.3634   24.3709 N   0  0  0  0  0  0  0  0  0  0  0  0
   21.1313  -24.1141   25.5006 C   0  0  0  0  0  0  0  0  0  0  0  0
   22.2663  -24.8544   25.8206 C   0  0  0  0  0  0  0  0  0  0  0  0
   22.9717  -24.6918   26.9643 N   0  0  0  0  0  0  0  0  0  0  0  0
   22.5320  -23.7302   27.8206 C   0  0  0  0  0  0  0  0  0  0  0  0
   22.9896  -23.2553   29.1051 C   0  0  0  0  0  0  0  0  0  0  0  0
   24.1221  -23.7075   29.8131 N   0  0  0  0  0  0  0  0  0  0  0  0
   23.9710  -23.9269   31.2699 C   0  0  0  0  0  0  0  0  0  0  0  0
   25.2616  -24.1906   32.0387 C   0  0  0  0  0  0  0  0  0  0  0  0
   26.1697  -25.1667   31.3054 C   0  0  0  0  0  0  0  0  0  0  0  0
   26.4280  -24.6589   29.8888 C   0  0  0  0  0  0  0  0  0  0  0  0
   27.6512  -24.9054   29.3342 N   0  0  0  0  0  0  0  0  0  0  0  0
   27.8895  -24.4592   28.0825 C   0  0  0  0  0  0  0  0  0  0  0  0
   26.9485  -23.7621   27.3383 C   0  0  0  0  0  0  0  0  0  0  0  0
   25.7003  -23.5087   27.9084 C   0  0  0  0  0  0  0  0  0  0  0  0
   25.4033  -23.9687   29.2131 C   0  0  0  0  0  0  0  0  0  0  0  0
   22.1588  -22.2715   29.5150 N   0  0  0  0  0  0  0  0  0  0  0  0
   21.2347  -22.1137   28.5280 N   0  0  0  0  0  0  0  0  0  0  0  0
   21.4254  -22.9806   27.4911 C   0  0  0  0  0  0  0  0  0  0  0  0
   20.7213  -23.1358   26.3495 N   0  0  0  0  0  0  0  0  0  0  0  0
   19.2036  -23.4649   24.0547 C   0  0  0  0  0  0  0  0  0  0  0  0
   17.9811  -23.9658   24.8469 C   0  0  0  0  0  0  0  0  0  0  0  0
  1  2  1  0
  2  3  1  0
  2  4  1  0
  4  5  1  0
  5  6  1  0
  6  7  1  0
  7  8  2  0
  8  9  1  0
  9 10  2  0
 10 11  1  0
 11 12  1  0
 12 13  1  0
 13 14  1  0
 14 15  1  0
 15 16  1  0
 16 17  2  0
 17 18  1  0
 18 19  2  0
 19 20  1  0
 20 21  2  0
 11 22  2  0
 22 23  1  0
 23 24  1  0
 24 25  2  0
  6 26  1  0
 26 27  1  0
 27  2  1  0
 25  7  1  0
 24 10  1  0
 21 12  1  0
 21 16  1  0
M  END
>  <paper_compound_no>  (11) 
9

>  <pIC50>  (11) 
7.39

>  <Align_Method>  (11) 
MCS+constrained

>  <MCS_RMSD>  (11) 
0.0425

>  <MCS_NumAtoms>  (11) 
25

>  <O3A_Score>  (11) 
173.9872

>  <Shape_Tanimoto>  (11) 
0.7920

>  <Best_ConfId>  (11) 
192

>  <N_Undefined_Stereo>  (11) 
0

>  <N_Stereoisomers>  (11) 
1

>  <Chosen_Isomer_SMILES>  (11) 
CC1(N)CCN(c2cnc3c(N4CCCc5ncccc54)n[nH]c3n2)CC1

$$$$
7
     RDKit          3D

 26 29  0  0  0  0  0  0  0  0999 V2000
   16.9657  -25.4986   23.1353 C   0  0  0  0  0  0  0  0  0  0  0  0
   17.6377  -25.4052   24.5225 C   0  0  0  0  0  0  0  0  0  0  0  0
   16.6532  -25.9008   25.5008 N   0  0  0  0  0  0  0  0  0  0  0  0
   18.8692  -26.2962   24.5644 C   0  0  0  0  0  0  0  0  0  0  0  0
   20.0903  -25.7020   23.8251 C   0  0  0  0  0  0  0  0  0  0  0  0
   20.3329  -24.3645   24.3708 N   0  0  0  0  0  0  0  0  0  0  0  0
   21.1297  -24.1167   25.5028 C   0  0  0  0  0  0  0  0  0  0  0  0
   22.2656  -24.8572   25.8240 C   0  0  0  0  0  0  0  0  0  0  0  0
   22.9764  -24.6903   26.9682 N   0  0  0  0  0  0  0  0  0  0  0  0
   22.5211  -23.7289   27.8142 C   0  0  0  0  0  0  0  0  0  0  0  0
   22.9582  -23.2590   29.0880 C   0  0  0  0  0  0  0  0  0  0  0  0
   24.0532  -23.7690   29.7069 N   0  0  0  0  0  0  0  0  0  0  0  0
   24.6201  -23.3786   30.9415 C   0  0  0  0  0  0  0  0  0  0  0  0
   25.9627  -22.9814   30.9386 C   0  0  0  0  0  0  0  0  0  0  0  0
   26.5340  -22.5247   32.1137 C   0  0  0  0  0  0  0  0  0  0  0  0
   25.8754  -22.4396   33.2862 N   0  0  0  0  0  0  0  0  0  0  0  0
   24.5833  -22.8259   33.2971 C   0  0  0  0  0  0  0  0  0  0  0  0
   23.9495  -22.6905   34.5357 N   0  0  0  0  0  0  0  0  0  0  0  0
   23.9122  -23.2931   32.1541 C   0  0  0  0  0  0  0  0  0  0  0  0
   22.2948  -23.9067   32.3160 Cl  0  0  0  0  0  0  0  0  0  0  0  0
   22.1606  -22.2655   29.5051 N   0  0  0  0  0  0  0  0  0  0  0  0
   21.2265  -22.1131   28.5295 N   0  0  0  0  0  0  0  0  0  0  0  0
   21.4185  -22.9785   27.4892 C   0  0  0  0  0  0  0  0  0  0  0  0
   20.7199  -23.1349   26.3474 N   0  0  0  0  0  0  0  0  0  0  0  0
   19.2072  -23.4599   24.0579 C   0  0  0  0  0  0  0  0  0  0  0  0
   17.9801  -23.9612   24.8450 C   0  0  0  0  0  0  0  0  0  0  0  0
  1  2  1  0
  2  3  1  0
  2  4  1  0
  4  5  1  0
  5  6  1  0
  6  7  1  0
  7  8  2  0
  8  9  1  0
  9 10  2  0
 10 11  1  0
 11 12  1  0
 12 13  1  0
 13 14  2  0
 14 15  1  0
 15 16  2  0
 16 17  1  0
 17 18  1  0
 17 19  2  0
 19 20  1  0
 11 21  2  0
 21 22  1  0
 22 23  1  0
 23 24  2  0
  6 25  1  0
 25 26  1  0
 26  2  1  0
 24  7  1  0
 23 10  1  0
 19 13  1  0
M  END
>  <paper_compound_no>  (12) 
7

>  <pIC50>  (12) 
7.0

>  <Align_Method>  (12) 
MCS+constrained

>  <MCS_RMSD>  (12) 
0.0501

>  <MCS_NumAtoms>  (12) 
15

>  <O3A_Score>  (12) 
119.5554

>  <Shape_Tanimoto>  (12) 
0.4945

>  <Best_ConfId>  (12) 
50

>  <N_Undefined_Stereo>  (12) 
0

>  <N_Stereoisomers>  (12) 
1

>  <Chosen_Isomer_SMILES>  (12) 
CC1(N)CCN(c2cnc3c(Nc4ccnc(N)c4Cl)n[nH]c3n2)CC1

$$$$
3
     RDKit          3D

 25 28  0  0  0  0  0  0  0  0999 V2000
   16.6000  -25.9246   25.5393 C   0  0  0  0  0  0  0  0  0  0  0  0
   17.6393  -25.4048   24.5304 C   0  0  0  0  0  0  0  0  0  0  0  0
   17.0082  -25.5108   23.1996 N   0  0  0  0  0  0  0  0  0  0  0  0
   18.8708  -26.2952   24.5641 C   0  0  0  0  0  0  0  0  0  0  0  0
   20.0900  -25.7011   23.8246 C   0  0  0  0  0  0  0  0  0  0  0  0
   20.3337  -24.3616   24.3701 N   0  0  0  0  0  0  0  0  0  0  0  0
   21.1315  -24.1154   25.5003 C   0  0  0  0  0  0  0  0  0  0  0  0
   22.2659  -24.8559   25.8221 C   0  0  0  0  0  0  0  0  0  0  0  0
   22.9700  -24.6928   26.9704 N   0  0  0  0  0  0  0  0  0  0  0  0
   22.5216  -23.7328   27.8172 C   0  0  0  0  0  0  0  0  0  0  0  0
   22.9633  -23.2553   29.0864 C   0  0  0  0  0  0  0  0  0  0  0  0
   24.0932  -23.7224   29.8820 C   0  0  0  0  0  0  0  0  0  0  0  0
   24.3944  -25.0939   29.9399 C   0  0  0  0  0  0  0  0  0  0  0  0
   25.4679  -25.5585   30.7049 C   0  0  0  0  0  0  0  0  0  0  0  0
   26.2553  -24.6574   31.4195 C   0  0  0  0  0  0  0  0  0  0  0  0
   25.9692  -23.2932   31.3630 C   0  0  0  0  0  0  0  0  0  0  0  0
   26.9640  -22.1934   32.2419 Cl  0  0  0  0  0  0  0  0  0  0  0  0
   24.8971  -22.8273   30.5989 C   0  0  0  0  0  0  0  0  0  0  0  0
   24.6666  -21.5048   30.5367 F   0  0  0  0  0  0  0  0  0  0  0  0
   22.1522  -22.2669   29.5035 N   0  0  0  0  0  0  0  0  0  0  0  0
   21.2291  -22.1123   28.5257 N   0  0  0  0  0  0  0  0  0  0  0  0
   21.4174  -22.9812   27.4892 C   0  0  0  0  0  0  0  0  0  0  0  0
   20.7192  -23.1378   26.3485 N   0  0  0  0  0  0  0  0  0  0  0  0
   19.2075  -23.4585   24.0561 C   0  0  0  0  0  0  0  0  0  0  0  0
   17.9823  -23.9614   24.8453 C   0  0  0  0  0  0  0  0  0  0  0  0
  1  2  1  0
  2  3  1  0
  2  4  1  0
  4  5  1  0
  5  6  1  0
  6  7  1  0
  7  8  2  0
  8  9  1  0
  9 10  2  0
 10 11  1  0
 11 12  1  0
 12 13  2  0
 13 14  1  0
 14 15  2  0
 15 16  1  0
 16 17  1  0
 16 18  2  0
 18 19  1  0
 11 20  2  0
 20 21  1  0
 21 22  1  0
 22 23  2  0
  6 24  1  0
 24 25  1  0
 25  2  1  0
 23  7  1  0
 22 10  1  0
 18 12  1  0
M  END
>  <paper_compound_no>  (13) 
3

>  <pIC50>  (13) 
6.92

>  <Align_Method>  (13) 
MCS+constrained

>  <MCS_RMSD>  (13) 
0.0493

>  <MCS_NumAtoms>  (13) 
15

>  <O3A_Score>  (13) 
119.7505

>  <Shape_Tanimoto>  (13) 
0.5434

>  <Best_ConfId>  (13) 
74

>  <N_Undefined_Stereo>  (13) 
0

>  <N_Stereoisomers>  (13) 
1

>  <Chosen_Isomer_SMILES>  (13) 
CC1(N)CCN(c2cnc3c(-c4cccc(Cl)c4F)n[nH]c3n2)CC1

$$$$
8
     RDKit          3D

 27 31  0  0  0  0  0  0  0  0999 V2000
   16.9603  -25.5143   23.1519 C   0  0  0  0  0  0  0  0  0  0  0  0
   17.6422  -25.4149   24.5324 C   0  0  0  0  0  0  0  0  0  0  0  0
   16.6478  -25.9034   25.5054 N   0  0  0  0  0  0  0  0  0  0  0  0
   18.8775  -26.3013   24.5644 C   0  0  0  0  0  0  0  0  0  0  0  0
   20.0959  -25.7018   23.8245 C   0  0  0  0  0  0  0  0  0  0  0  0
   20.3323  -24.3609   24.3674 N   0  0  0  0  0  0  0  0  0  0  0  0
   21.1300  -24.1119   25.4998 C   0  0  0  0  0  0  0  0  0  0  0  0
   22.2655  -24.8521   25.8195 C   0  0  0  0  0  0  0  0  0  0  0  0
   22.9706  -24.6900   26.9624 N   0  0  0  0  0  0  0  0  0  0  0  0
   22.5333  -23.7286   27.8196 C   0  0  0  0  0  0  0  0  0  0  0  0
   22.9908  -23.2549   29.1044 C   0  0  0  0  0  0  0  0  0  0  0  0
   24.1230  -23.7082   29.8123 N   0  0  0  0  0  0  0  0  0  0  0  0
   23.9695  -23.9268   31.2678 C   0  0  0  0  0  0  0  0  0  0  0  0
   25.2546  -24.1922   32.0424 C   0  0  0  0  0  0  0  0  0  0  0  0
   26.1582  -25.1732   31.3195 C   0  0  0  0  0  0  0  0  0  0  0  0
   26.4192  -24.6704   29.9131 C   0  0  0  0  0  0  0  0  0  0  0  0
   27.6589  -24.9310   29.3316 C   0  0  0  0  0  0  0  0  0  0  0  0
   27.9148  -24.4666   28.0556 C   0  0  0  0  0  0  0  0  0  0  0  0
   26.9453  -23.7602   27.3370 C   0  0  0  0  0  0  0  0  0  0  0  0
   25.7002  -23.5062   27.9104 C   0  0  0  0  0  0  0  0  0  0  0  0
   25.4070  -23.9691   29.2134 C   0  0  0  0  0  0  0  0  0  0  0  0
   22.1586  -22.2721   29.5157 N   0  0  0  0  0  0  0  0  0  0  0  0
   21.2355  -22.1135   28.5289 N   0  0  0  0  0  0  0  0  0  0  0  0
   21.4262  -22.9789   27.4908 C   0  0  0  0  0  0  0  0  0  0  0  0
   20.7211  -23.1340   26.3492 N   0  0  0  0  0  0  0  0  0  0  0  0
   19.1990  -23.4624   24.0590 C   0  0  0  0  0  0  0  0  0  0  0  0
   17.9777  -23.9694   24.8507 C   0  0  0  0  0  0  0  0  0  0  0  0
  1  2  1  0
  2  3  1  0
  2  4  1  0
  4  5  1  0
  5  6  1  0
  6  7  1  0
  7  8  2  0
  8  9  1  0
  9 10  2  0
 10 11  1  0
 11 12  1  0
 12 13  1  0
 13 14  1  0
 14 15  1  0
 15 16  1  0
 16 17  2  0
 17 18  1  0
 18 19  2  0
 19 20  1  0
 20 21  2  0
 11 22  2  0
 22 23  1  0
 23 24  1  0
 24 25  2  0
  6 26  1  0
 26 27  1  0
 27  2  1  0
 25  7  1  0
 24 10  1  0
 21 12  1  0
 21 16  1  0
M  END
>  <paper_compound_no>  (14) 
8

>  <pIC50>  (14) 
6.89

>  <Align_Method>  (14) 
MCS+constrained

>  <MCS_RMSD>  (14) 
0.0434

>  <MCS_NumAtoms>  (14) 
24

>  <O3A_Score>  (14) 
171.9861

>  <Shape_Tanimoto>  (14) 
0.7920

>  <Best_ConfId>  (14) 
1

>  <N_Undefined_Stereo>  (14) 
0

>  <N_Stereoisomers>  (14) 
1

>  <Chosen_Isomer_SMILES>  (14) 
CC1(N)CCN(c2cnc3c(N4CCCc5ccccc54)n[nH]c3n2)CC1

$$$$
12
     RDKit          3D

 28 32  0  0  0  0  0  0  0  0999 V2000
   17.9966  -24.7098   21.7755 C   0  0  0  0  0  0  0  0  0  0  0  0
   19.4120  -25.3294   21.6609 C   0  0  2  0  0  0  0  0  0  0  0  0
   19.4519  -26.0800   20.2955 C   0  0  0  0  0  0  0  0  0  0  0  0
   20.6801  -26.8164   20.0121 N   0  0  0  0  0  0  0  0  0  0  0  0
   19.6283  -26.3168   22.8331 C   0  0  0  0  0  0  0  0  0  0  0  0
   19.6465  -25.6492   24.2122 C   0  0  0  0  0  0  0  0  0  0  0  0
   20.4023  -24.3073   24.2308 C   0  0  1  0  0  0  0  0  0  0  0  0
   21.1693  -24.1077   25.5215 C   0  0  0  0  0  0  0  0  0  0  0  0
   22.2739  -24.8725   25.8387 C   0  0  0  0  0  0  0  0  0  0  0  0
   22.9619  -24.7104   26.9811 N   0  0  0  0  0  0  0  0  0  0  0  0
   22.5228  -23.7425   27.8304 C   0  0  0  0  0  0  0  0  0  0  0  0
   22.9869  -23.2609   29.1057 C   0  0  0  0  0  0  0  0  0  0  0  0
   24.1233  -23.7049   29.8124 N   0  0  0  0  0  0  0  0  0  0  0  0
   23.9731  -23.9130   31.2686 C   0  0  0  0  0  0  0  0  0  0  0  0
   25.2653  -24.1842   32.0323 C   0  0  0  0  0  0  0  0  0  0  0  0
   26.1616  -25.1738   31.2992 C   0  0  0  0  0  0  0  0  0  0  0  0
   26.4283  -24.6598   29.8868 C   0  0  0  0  0  0  0  0  0  0  0  0
   27.6497  -24.9094   29.3298 N   0  0  0  0  0  0  0  0  0  0  0  0
   27.8867  -24.4599   28.0785 C   0  0  0  0  0  0  0  0  0  0  0  0
   26.9462  -23.7561   27.3382 C   0  0  0  0  0  0  0  0  0  0  0  0
   25.7011  -23.4996   27.9117 C   0  0  0  0  0  0  0  0  0  0  0  0
   25.4056  -23.9631   29.2143 C   0  0  0  0  0  0  0  0  0  0  0  0
   22.1627  -22.2706   29.5128 N   0  0  0  0  0  0  0  0  0  0  0  0
   21.2336  -22.1154   28.5310 N   0  0  0  0  0  0  0  0  0  0  0  0
   21.4159  -22.9890   27.4993 C   0  0  0  0  0  0  0  0  0  0  0  0
   20.7121  -23.1410   26.3559 N   0  0  0  0  0  0  0  0  0  0  0  0
   21.2858  -24.1255   22.9903 C   0  0  0  0  0  0  0  0  0  0  0  0
   20.4637  -24.1825   21.6984 C   0  0  0  0  0  0  0  0  0  0  0  0
  2  1  1  1
  2  3  1  0
  3  4  1  0
  2  5  1  0
  5  6  1  0
  6  7  1  0
  7  8  1  1
  8  9  2  0
  9 10  1  0
 10 11  2  0
 11 12  1  0
 12 13  1  0
 13 14  1  0
 14 15  1  0
 15 16  1  0
 16 17  1  0
 17 18  2  0
 18 19  1  0
 19 20  2  0
 20 21  1  0
 21 22  2  0
 12 23  2  0
 23 24  1  0
 24 25  1  0
 25 26  2  0
  7 27  1  0
 27 28  1  0
 28  2  1  0
 26  8  1  0
 25 11  1  0
 22 13  1  0
 22 17  1  0
M  END
>  <paper_compound_no>  (15) 
12

>  <pIC50>  (15) 
6.51

>  <Align_Method>  (15) 
MCS+constrained

>  <MCS_RMSD>  (15) 
0.0308

>  <MCS_NumAtoms>  (15) 
19

>  <O3A_Score>  (15) 
134.4576

>  <Shape_Tanimoto>  (15) 
0.5403

>  <Best_ConfId>  (15) 
166

>  <N_Undefined_Stereo>  (15) 
0

>  <N_Stereoisomers>  (15) 
1

>  <Chosen_Isomer_SMILES>  (15) 
C[C@]1(CN)CC[C@@H](c2cnc3c(N4CCCc5ncccc54)n[nH]c3n2)CC1

$$$$
