Mol1_Deg0
     RDKit          3D

 27 29  0  0  0  0  0  0  0  0999 V2000
   -5.6344    0.6392    0.5391 C   0  0  0  0  0  0  0  0  0  0  0  0
   -5.1623   -0.1424   -0.5479 O   0  0  0  0  0  0  0  0  0  0  0  0
   -3.7320   -0.3366   -0.6418 C   0  0  2  0  0  0  0  0  0  0  0  0
   -3.2066   -0.8601    0.7114 C   0  0  0  0  0  0  0  0  0  0  0  0
   -2.9813    1.0129   -1.0099 C   0  0  0  0  0  0  0  0  0  0  0  0
   -3.6315    2.0388   -1.2537 O   0  0  0  0  0  0  0  0  0  0  0  0
   -1.5840    1.0730   -0.9923 N   0  0  0  0  0  0  0  0  0  0  0  0
   -0.6987   -0.0443   -1.3767 C   0  0  0  0  0  0  0  0  0  0  0  0
   -0.2634    0.0800   -2.8581 C   0  0  0  0  0  0  0  0  0  0  0  0
    0.3351    1.4051   -3.1132 N   0  0  0  0  0  0  0  0  0  0  0  0
    1.6612    1.5369   -2.6968 C   0  0  0  0  0  0  0  0  0  0  0  0
    2.4195    0.4354   -2.5761 N   0  0  0  0  0  0  0  0  0  0  0  0
    3.6991    0.5947   -2.1939 C   0  0  0  0  0  0  0  0  0  0  0  0
    4.2618    1.8122   -1.9106 C   0  0  0  0  0  0  0  0  0  0  0  0
    3.4266    2.8981   -2.0425 C   0  0  0  0  0  0  0  0  0  0  0  0
    3.9293    4.2982   -1.7561 C   0  0  0  0  0  0  0  0  0  0  0  0
    3.1352    4.9362   -0.6148 C   0  0  0  0  0  0  0  0  0  0  0  0
    3.8646    5.1655   -3.0141 C   0  0  0  0  0  0  0  0  0  0  0  0
    2.1387    2.7645   -2.4297 N   0  0  0  0  0  0  0  0  0  0  0  0
   -0.5491    2.5252   -2.7251 C   0  0  0  0  0  0  0  0  0  0  0  0
   -0.9639    2.3892   -1.2438 C   0  0  0  0  0  0  0  0  0  0  0  0
   -3.6391   -1.3431   -1.8025 C   0  0  0  0  0  0  0  0  0  0  0  0
   -3.9448   -0.9173   -3.1115 C   0  0  0  0  0  0  0  0  0  0  0  0
   -3.8685   -1.7934   -4.1960 C   0  0  0  0  0  0  0  0  0  0  0  0
   -3.5024   -3.1199   -3.9937 C   0  0  0  0  0  0  0  0  0  0  0  0
   -3.2282   -3.5729   -2.7063 C   0  0  0  0  0  0  0  0  0  0  0  0
   -3.3051   -2.6967   -1.6193 C   0  0  0  0  0  0  0  0  0  0  0  0
  1  2  1  0
  2  3  1  0
  3  4  1  1
  3  5  1  0
  3 22  1  0
  5  7  1  0
  5  6  2  0
  7  8  1  0
  7 21  1  0
  8  9  1  0
  9 10  1  0
 10 11  1  0
 10 20  1  0
 11 19  1  0
 11 12  2  0
 12 13  1  0
 13 14  2  0
 14 15  1  0
 15 16  1  0
 15 19  2  0
 16 17  1  0
 16 18  1  0
 20 21  1  0
 22 27  1  0
 22 23  2  0
 23 24  1  0
 24 25  2  0
 25 26  1  0
 26 27  2  0
M  END
>  <Torsion_Angle>  (1) 
0

>  <MMFF94_Energy>  (1) 
66.29

>  <MMFF94_Relative_Energy>  (1) 
6.53

$$$$
Mol1_Deg5
     RDKit          3D

 27 29  0  0  0  0  0  0  0  0999 V2000
   -5.7481    0.6201    0.3605 C   0  0  0  0  0  0  0  0  0  0  0  0
   -5.1679   -0.1733   -0.6635 O   0  0  0  0  0  0  0  0  0  0  0  0
   -3.7309   -0.3356   -0.6375 C   0  0  2  0  0  0  0  0  0  0  0  0
   -3.2950   -0.7674    0.7793 C   0  0  0  0  0  0  0  0  0  0  0  0
   -2.9802    1.0117   -1.0147 C   0  0  0  0  0  0  0  0  0  0  0  0
   -3.6328    2.0386   -1.2502 O   0  0  0  0  0  0  0  0  0  0  0  0
   -1.5784    1.0740   -1.0123 N   0  0  0  0  0  0  0  0  0  0  0  0
   -0.7148   -0.0768   -1.3506 C   0  0  0  0  0  0  0  0  0  0  0  0
    0.7479    0.1133   -0.8968 C   0  0  0  0  0  0  0  0  0  0  0  0
    1.2813    1.4021   -1.3560 N   0  0  0  0  0  0  0  0  0  0  0  0
    1.6450    1.4388   -2.7032 C   0  0  0  0  0  0  0  0  0  0  0  0
    1.9512    0.2891   -3.3249 N   0  0  0  0  0  0  0  0  0  0  0  0
    2.3067    0.3550   -4.6198 C   0  0  0  0  0  0  0  0  0  0  0  0
    2.3686    1.5248   -5.3321 C   0  0  0  0  0  0  0  0  0  0  0  0
    2.0418    2.6674   -4.6354 C   0  0  0  0  0  0  0  0  0  0  0  0
    2.0605    4.0374   -5.2814 C   0  0  0  0  0  0  0  0  0  0  0  0
    1.0301    4.1428   -6.4069 C   0  0  0  0  0  0  0  0  0  0  0  0
    3.4584    4.4132   -5.7758 C   0  0  0  0  0  0  0  0  0  0  0  0
    1.6824    2.6259   -3.3333 N   0  0  0  0  0  0  0  0  0  0  0  0
    0.4673    2.5413   -0.9067 C   0  0  0  0  0  0  0  0  0  0  0  0
   -0.9967    2.3875   -1.3606 C   0  0  0  0  0  0  0  0  0  0  0  0
   -3.5296   -1.4046   -1.7260 C   0  0  0  0  0  0  0  0  0  0  0  0
   -3.2241   -2.7459   -1.4341 C   0  0  0  0  0  0  0  0  0  0  0  0
   -3.0496   -3.6835   -2.4566 C   0  0  0  0  0  0  0  0  0  0  0  0
   -3.1947   -3.3048   -3.7882 C   0  0  0  0  0  0  0  0  0  0  0  0
   -3.5280   -1.9909   -4.1006 C   0  0  0  0  0  0  0  0  0  0  0  0
   -3.7023   -1.0534   -3.0806 C   0  0  0  0  0  0  0  0  0  0  0  0
  1  2  1  0
  2  3  1  0
  3  4  1  1
  3  5  1  0
  3 22  1  0
  5  7  1  0
  5  6  2  0
  7  8  1  0
  7 21  1  0
  8  9  1  0
  9 10  1  0
 10 11  1  0
 10 20  1  0
 11 19  1  0
 11 12  2  0
 12 13  1  0
 13 14  2  0
 14 15  1  0
 15 16  1  0
 15 19  2  0
 16 17  1  0
 16 18  1  0
 20 21  1  0
 22 27  1  0
 22 23  2  0
 23 24  1  0
 24 25  2  0
 25 26  1  0
 26 27  2  0
M  END
>  <Torsion_Angle>  (2) 
5

>  <MMFF94_Energy>  (2) 
67.55

>  <MMFF94_Relative_Energy>  (2) 
7.79

$$$$
Mol1_Deg10
     RDKit          3D

 27 29  0  0  0  0  0  0  0  0999 V2000
   -5.6787   -0.0467   -2.0866 C   0  0  0  0  0  0  0  0  0  0  0  0
   -5.1653   -0.2066   -0.7715 O   0  0  0  0  0  0  0  0  0  0  0  0
   -3.7288   -0.3352   -0.6455 C   0  0  2  0  0  0  0  0  0  0  0  0
   -3.5491   -0.5302    0.8787 C   0  0  0  0  0  0  0  0  0  0  0  0
   -2.9778    1.0131   -1.0058 C   0  0  0  0  0  0  0  0  0  0  0  0
   -3.6355    2.0340   -1.2544 O   0  0  0  0  0  0  0  0  0  0  0  0
   -1.5804    1.0813   -1.0327 N   0  0  0  0  0  0  0  0  0  0  0  0
   -0.9804    2.4114   -1.2717 C   0  0  0  0  0  0  0  0  0  0  0  0
    0.4050    2.3349   -1.9432 C   0  0  0  0  0  0  0  0  0  0  0  0
    1.2890    1.4036   -1.2264 N   0  0  0  0  0  0  0  0  0  0  0  0
    1.8400    1.9103   -0.0485 C   0  0  0  0  0  0  0  0  0  0  0  0
    1.9868    3.2378    0.0810 N   0  0  0  0  0  0  0  0  0  0  0  0
    2.5331    3.6985    1.2195 C   0  0  0  0  0  0  0  0  0  0  0  0
    2.9391    2.8890    2.2487 C   0  0  0  0  0  0  0  0  0  0  0  0
    2.7566    1.5374    2.0544 C   0  0  0  0  0  0  0  0  0  0  0  0
    3.1535    0.5137    3.0981 C   0  0  0  0  0  0  0  0  0  0  0  0
    2.3503    0.6847    4.3886 C   0  0  0  0  0  0  0  0  0  0  0  0
    4.6574    0.5405    3.3760 C   0  0  0  0  0  0  0  0  0  0  0  0
    2.2097    1.0509    0.9180 N   0  0  0  0  0  0  0  0  0  0  0  0
    0.7152    0.0559   -1.1128 C   0  0  0  0  0  0  0  0  0  0  0  0
   -0.6620    0.0993   -0.4190 C   0  0  0  0  0  0  0  0  0  0  0  0
   -3.2798   -1.5576   -1.4699 C   0  0  0  0  0  0  0  0  0  0  0  0
   -2.7502   -1.4098   -2.7680 C   0  0  0  0  0  0  0  0  0  0  0  0
   -2.3515   -2.5189   -3.5182 C   0  0  0  0  0  0  0  0  0  0  0  0
   -2.4912   -3.8007   -2.9963 C   0  0  0  0  0  0  0  0  0  0  0  0
   -3.0411   -3.9750   -1.7301 C   0  0  0  0  0  0  0  0  0  0  0  0
   -3.4392   -2.8663   -0.9781 C   0  0  0  0  0  0  0  0  0  0  0  0
  1  2  1  0
  2  3  1  0
  3  4  1  1
  3  5  1  0
  3 22  1  0
  5  7  1  0
  5  6  2  0
  7  8  1  0
  7 21  1  0
  8  9  1  0
  9 10  1  0
 10 11  1  0
 10 20  1  0
 11 19  1  0
 11 12  2  0
 12 13  1  0
 13 14  2  0
 14 15  1  0
 15 16  1  0
 15 19  2  0
 16 17  1  0
 16 18  1  0
 20 21  1  0
 22 27  1  0
 22 23  2  0
 23 24  1  0
 24 25  2  0
 25 26  1  0
 26 27  2  0
M  END
>  <Torsion_Angle>  (3) 
10

>  <MMFF94_Energy>  (3) 
67.57

>  <MMFF94_Relative_Energy>  (3) 
7.81

$$$$
Mol1_Deg15
     RDKit          3D

 27 29  0  0  0  0  0  0  0  0999 V2000
   -5.8733    0.5265    0.0885 C   0  0  0  0  0  0  0  0  0  0  0  0
   -5.1535   -0.2398   -0.8652 O   0  0  0  0  0  0  0  0  0  0  0  0
   -3.7246   -0.3483   -0.6739 C   0  0  2  0  0  0  0  0  0  0  0  0
   -3.4292   -0.7758    0.7781 C   0  0  0  0  0  0  0  0  0  0  0  0
   -2.9809    1.0230   -0.9713 C   0  0  0  0  0  0  0  0  0  0  0  0
   -3.6352    2.0302   -1.2756 O   0  0  0  0  0  0  0  0  0  0  0  0
   -1.5998    1.1380   -0.7937 N   0  0  0  0  0  0  0  0  0  0  0  0
   -0.9881    2.4511   -1.0393 C   0  0  0  0  0  0  0  0  0  0  0  0
   -0.3888    2.5249   -2.4562 C   0  0  0  0  0  0  0  0  0  0  0  0
    0.5488    1.4040   -2.6726 N   0  0  0  0  0  0  0  0  0  0  0  0
    1.1960    1.4570   -3.9121 C   0  0  0  0  0  0  0  0  0  0  0  0
    1.3526    2.6464   -4.5153 N   0  0  0  0  0  0  0  0  0  0  0  0
    1.9956    2.6691   -5.6961 C   0  0  0  0  0  0  0  0  0  0  0  0
    2.4955    1.5504   -6.3113 C   0  0  0  0  0  0  0  0  0  0  0  0
    2.3041    0.3654   -5.6377 C   0  0  0  0  0  0  0  0  0  0  0  0
    2.8090   -0.9411   -6.2146 C   0  0  0  0  0  0  0  0  0  0  0  0
    3.8686   -1.5620   -5.3032 C   0  0  0  0  0  0  0  0  0  0  0  0
    1.6523   -1.9158   -6.4451 C   0  0  0  0  0  0  0  0  0  0  0  0
    1.6666    0.3162   -4.4473 N   0  0  0  0  0  0  0  0  0  0  0  0
    0.0187    0.0648   -2.3506 C   0  0  0  0  0  0  0  0  0  0  0  0
   -0.6225    0.0525   -0.9455 C   0  0  0  0  0  0  0  0  0  0  0  0
   -3.3716   -1.4016   -1.7405 C   0  0  0  0  0  0  0  0  0  0  0  0
   -3.4739   -1.0601   -3.1051 C   0  0  0  0  0  0  0  0  0  0  0  0
   -3.1596   -1.9788   -4.1086 C   0  0  0  0  0  0  0  0  0  0  0  0
   -2.7538   -3.2655   -3.7706 C   0  0  0  0  0  0  0  0  0  0  0  0
   -2.6786   -3.6375   -2.4313 C   0  0  0  0  0  0  0  0  0  0  0  0
   -2.9941   -2.7189   -1.4253 C   0  0  0  0  0  0  0  0  0  0  0  0
  1  2  1  0
  2  3  1  0
  3  4  1  1
  3  5  1  0
  3 22  1  0
  5  7  1  0
  5  6  2  0
  7  8  1  0
  7 21  1  0
  8  9  1  0
  9 10  1  0
 10 11  1  0
 10 20  1  0
 11 19  1  0
 11 12  2  0
 12 13  1  0
 13 14  2  0
 14 15  1  0
 15 16  1  0
 15 19  2  0
 16 17  1  0
 16 18  1  0
 20 21  1  0
 22 27  1  0
 22 23  2  0
 23 24  1  0
 24 25  2  0
 25 26  1  0
 26 27  2  0
M  END
>  <Torsion_Angle>  (4) 
15

>  <MMFF94_Energy>  (4) 
66.23

>  <MMFF94_Relative_Energy>  (4) 
6.47

$$$$
Mol1_Deg20
     RDKit          3D

 27 29  0  0  0  0  0  0  0  0999 V2000
   -5.4824   -0.1476   -2.3468 C   0  0  0  0  0  0  0  0  0  0  0  0
   -5.1339   -0.2834   -0.9763 O   0  0  0  0  0  0  0  0  0  0  0  0
   -3.7218   -0.3440   -0.6667 C   0  0  2  0  0  0  0  0  0  0  0  0
   -3.7202   -0.4817    0.8735 C   0  0  0  0  0  0  0  0  0  0  0  0
   -2.9778    1.0202   -0.9789 C   0  0  0  0  0  0  0  0  0  0  0  0
   -3.6383    2.0279   -1.2701 O   0  0  0  0  0  0  0  0  0  0  0  0
   -1.5841    1.1225   -0.8957 N   0  0  0  0  0  0  0  0  0  0  0  0
   -1.0007    2.4599   -1.1329 C   0  0  0  0  0  0  0  0  0  0  0  0
    0.4487    2.3986   -1.6534 C   0  0  0  0  0  0  0  0  0  0  0  0
    1.2796    1.5305   -0.8049 N   0  0  0  0  0  0  0  0  0  0  0  0
    1.6880    2.1074    0.3985 C   0  0  0  0  0  0  0  0  0  0  0  0
    2.0276    1.3072    1.4219 N   0  0  0  0  0  0  0  0  0  0  0  0
    2.4306    1.8911    2.5646 C   0  0  0  0  0  0  0  0  0  0  0  0
    2.5018    3.2489    2.7406 C   0  0  0  0  0  0  0  0  0  0  0  0
    2.1319    4.0096    1.6548 C   0  0  0  0  0  0  0  0  0  0  0  0
    2.1629    5.5225    1.7254 C   0  0  0  0  0  0  0  0  0  0  0  0
    3.1556    6.0927    0.7112 C   0  0  0  0  0  0  0  0  0  0  0  0
    0.7653    6.1038    1.5037 C   0  0  0  0  0  0  0  0  0  0  0  0
    1.7297    3.4472    0.4937 N   0  0  0  0  0  0  0  0  0  0  0  0
    0.7353    0.1710   -0.6848 C   0  0  0  0  0  0  0  0  0  0  0  0
   -0.7080    0.2020   -0.1405 C   0  0  0  0  0  0  0  0  0  0  0  0
   -3.1347   -1.5746   -1.3874 C   0  0  0  0  0  0  0  0  0  0  0  0
   -3.2921   -2.8710   -0.8633 C   0  0  0  0  0  0  0  0  0  0  0  0
   -2.7685   -3.9865   -1.5227 C   0  0  0  0  0  0  0  0  0  0  0  0
   -2.0917   -3.8329   -2.7286 C   0  0  0  0  0  0  0  0  0  0  0  0
   -1.9495   -2.5657   -3.2840 C   0  0  0  0  0  0  0  0  0  0  0  0
   -2.4737   -1.4500   -2.6265 C   0  0  0  0  0  0  0  0  0  0  0  0
  1  2  1  0
  2  3  1  0
  3  4  1  1
  3  5  1  0
  3 22  1  0
  5  7  1  0
  5  6  2  0
  7  8  1  0
  7 21  1  0
  8  9  1  0
  9 10  1  0
 10 11  1  0
 10 20  1  0
 11 19  1  0
 11 12  2  0
 12 13  1  0
 13 14  2  0
 14 15  1  0
 15 16  1  0
 15 19  2  0
 16 17  1  0
 16 18  1  0
 20 21  1  0
 22 27  1  0
 22 23  2  0
 23 24  1  0
 24 25  2  0
 25 26  1  0
 26 27  2  0
M  END
>  <Torsion_Angle>  (5) 
20

>  <MMFF94_Energy>  (5) 
66.68

>  <MMFF94_Relative_Energy>  (5) 
6.92

$$$$
Mol1_Deg25
     RDKit          3D

 27 29  0  0  0  0  0  0  0  0999 V2000
   -5.9779    0.4286   -0.2331 C   0  0  0  0  0  0  0  0  0  0  0  0
   -5.1069   -0.3207   -1.0664 O   0  0  0  0  0  0  0  0  0  0  0  0
   -3.7124   -0.3579   -0.6904 C   0  0  2  0  0  0  0  0  0  0  0  0
   -3.5803   -0.7175    0.8032 C   0  0  0  0  0  0  0  0  0  0  0  0
   -2.9819    1.0292   -0.9477 C   0  0  0  0  0  0  0  0  0  0  0  0
   -3.6398    2.0220   -1.2897 O   0  0  0  0  0  0  0  0  0  0  0  0
   -1.6207    1.1833   -0.6799 N   0  0  0  0  0  0  0  0  0  0  0  0
   -1.0143    2.5017   -0.9118 C   0  0  0  0  0  0  0  0  0  0  0  0
   -0.2126    2.5168   -2.2264 C   0  0  0  0  0  0  0  0  0  0  0  0
    0.7757    1.4197   -2.2342 N   0  0  0  0  0  0  0  0  0  0  0  0
    1.6145    1.4328   -3.3532 C   0  0  0  0  0  0  0  0  0  0  0  0
    2.2396    0.2989   -3.7101 N   0  0  0  0  0  0  0  0  0  0  0  0
    3.0607    0.3461   -4.7733 C   0  0  0  0  0  0  0  0  0  0  0  0
    3.2929    1.4824   -5.5045 C   0  0  0  0  0  0  0  0  0  0  0  0
    2.6253    2.6114   -5.0834 C   0  0  0  0  0  0  0  0  0  0  0  0
    2.7785    3.9456   -5.7843 C   0  0  0  0  0  0  0  0  0  0  0  0
    4.2179    4.4587   -5.7157 C   0  0  0  0  0  0  0  0  0  0  0  0
    2.2829    3.8842   -7.2301 C   0  0  0  0  0  0  0  0  0  0  0  0
    1.7953    2.5888   -4.0170 N   0  0  0  0  0  0  0  0  0  0  0  0
    0.2366    0.0824   -1.9216 C   0  0  0  0  0  0  0  0  0  0  0  0
   -0.6070    0.1217   -0.6283 C   0  0  0  0  0  0  0  0  0  0  0  0
   -3.1952   -1.4375   -1.6602 C   0  0  0  0  0  0  0  0  0  0  0  0
   -3.1256   -1.1482   -3.0389 C   0  0  0  0  0  0  0  0  0  0  0  0
   -2.6655   -2.0948   -3.9564 C   0  0  0  0  0  0  0  0  0  0  0  0
   -2.2815   -3.3579   -3.5184 C   0  0  0  0  0  0  0  0  0  0  0  0
   -2.3732   -3.6791   -2.1670 C   0  0  0  0  0  0  0  0  0  0  0  0
   -2.8355   -2.7328   -1.2472 C   0  0  0  0  0  0  0  0  0  0  0  0
  1  2  1  0
  2  3  1  0
  3  4  1  1
  3  5  1  0
  3 22  1  0
  5  7  1  0
  5  6  2  0
  7  8  1  0
  7 21  1  0
  8  9  1  0
  9 10  1  0
 10 11  1  0
 10 20  1  0
 11 19  1  0
 11 12  2  0
 12 13  1  0
 13 14  2  0
 14 15  1  0
 15 16  1  0
 15 19  2  0
 16 17  1  0
 16 18  1  0
 20 21  1  0
 22 27  1  0
 22 23  2  0
 23 24  1  0
 24 25  2  0
 25 26  1  0
 26 27  2  0
M  END
>  <Torsion_Angle>  (6) 
25

>  <MMFF94_Energy>  (6) 
67.80

>  <MMFF94_Relative_Energy>  (6) 
8.04

$$$$
Mol1_Deg30
     RDKit          3D

 27 29  0  0  0  0  0  0  0  0999 V2000
   -5.2546   -0.2513   -2.5713 C   0  0  0  0  0  0  0  0  0  0  0  0
   -5.0713   -0.3718   -1.1680 O   0  0  0  0  0  0  0  0  0  0  0  0
   -3.7087   -0.3548   -0.6850 C   0  0  2  0  0  0  0  0  0  0  0  0
   -3.8854   -0.4416    0.8484 C   0  0  0  0  0  0  0  0  0  0  0  0
   -2.9796    1.0276   -0.9518 C   0  0  0  0  0  0  0  0  0  0  0  0
   -3.6419    2.0202   -1.2869 O   0  0  0  0  0  0  0  0  0  0  0  0
   -1.5994    1.1677   -0.7599 N   0  0  0  0  0  0  0  0  0  0  0  0
   -1.0321    2.5122   -0.9949 C   0  0  0  0  0  0  0  0  0  0  0  0
    0.4640    2.4748   -1.3636 C   0  0  0  0  0  0  0  0  0  0  0  0
    1.2275    1.6703   -0.3972 N   0  0  0  0  0  0  0  0  0  0  0  0
    1.4968    2.3116    0.8130 C   0  0  0  0  0  0  0  0  0  0  0  0
    1.7515    1.5677    1.9014 N   0  0  0  0  0  0  0  0  0  0  0  0
    2.0212    2.2130    3.0503 C   0  0  0  0  0  0  0  0  0  0  0  0
    2.0389    3.5788    3.1691 C   0  0  0  0  0  0  0  0  0  0  0  0
    1.7617    4.2796    2.0174 C   0  0  0  0  0  0  0  0  0  0  0  0
    1.7467    5.7944    2.0201 C   0  0  0  0  0  0  0  0  0  0  0  0
    2.8262    6.3490    1.0894 C   0  0  0  0  0  0  0  0  0  0  0  0
    0.3662    6.3234    1.6270 C   0  0  0  0  0  0  0  0  0  0  0  0
    1.4942    3.6549    0.8492 N   0  0  0  0  0  0  0  0  0  0  0  0
    0.7099    0.3010   -0.2684 C   0  0  0  0  0  0  0  0  0  0  0  0
   -0.7816    0.3119    0.1259 C   0  0  0  0  0  0  0  0  0  0  0  0
   -2.9957   -1.5843   -1.2862 C   0  0  0  0  0  0  0  0  0  0  0  0
   -3.1518   -2.8660   -0.7265 C   0  0  0  0  0  0  0  0  0  0  0  0
   -2.5134   -3.9799   -1.2792 C   0  0  0  0  0  0  0  0  0  0  0  0
   -1.7196   -3.8407   -2.4134 C   0  0  0  0  0  0  0  0  0  0  0  0
   -1.5743   -2.5904   -3.0050 C   0  0  0  0  0  0  0  0  0  0  0  0
   -2.2130   -1.4766   -2.4542 C   0  0  0  0  0  0  0  0  0  0  0  0
  1  2  1  0
  2  3  1  0
  3  4  1  1
  3  5  1  0
  3 22  1  0
  5  7  1  0
  5  6  2  0
  7  8  1  0
  7 21  1  0
  8  9  1  0
  9 10  1  0
 10 11  1  0
 10 20  1  0
 11 19  1  0
 11 12  2  0
 12 13  1  0
 13 14  2  0
 14 15  1  0
 15 16  1  0
 15 19  2  0
 16 17  1  0
 16 18  1  0
 20 21  1  0
 22 27  1  0
 22 23  2  0
 23 24  1  0
 24 25  2  0
 25 26  1  0
 26 27  2  0
M  END
>  <Torsion_Angle>  (7) 
30

>  <MMFF94_Energy>  (7) 
67.00

>  <MMFF94_Relative_Energy>  (7) 
7.24

$$$$
Mol1_Deg35
     RDKit          3D

 27 29  0  0  0  0  0  0  0  0999 V2000
   -5.1285   -0.3059   -2.6699 C   0  0  0  0  0  0  0  0  0  0  0  0
   -5.0287   -0.4199   -1.2578 O   0  0  0  0  0  0  0  0  0  0  0  0
   -3.7005   -0.3602   -0.6914 C   0  0  2  0  0  0  0  0  0  0  0  0
   -3.9671   -0.4192    0.8301 C   0  0  0  0  0  0  0  0  0  0  0  0
   -2.9810    1.0311   -0.9396 C   0  0  0  0  0  0  0  0  0  0  0  0
   -3.6439    2.0160   -1.2949 O   0  0  0  0  0  0  0  0  0  0  0  0
   -1.6100    1.1892   -0.7005 N   0  0  0  0  0  0  0  0  0  0  0  0
   -1.0477    2.5335   -0.9471 C   0  0  0  0  0  0  0  0  0  0  0  0
    0.4640    2.5027   -1.2462 C   0  0  0  0  0  0  0  0  0  0  0  0
    1.1908    1.7371   -0.2214 N   0  0  0  0  0  0  0  0  0  0  0  0
    1.3984    2.4191    0.9785 C   0  0  0  0  0  0  0  0  0  0  0  0
    1.6079    1.7131    2.1012 N   0  0  0  0  0  0  0  0  0  0  0  0
    1.8187    2.3977    3.2397 C   0  0  0  0  0  0  0  0  0  0  0  0
    1.8205    3.7667    3.3145 C   0  0  0  0  0  0  0  0  0  0  0  0
    1.5920    4.4274    2.1289 C   0  0  0  0  0  0  0  0  0  0  0  0
    1.5659    5.9413    2.0810 C   0  0  0  0  0  0  0  0  0  0  0  0
    2.6831    6.4746    1.1830 C   0  0  0  0  0  0  0  0  0  0  0  0
    0.2012    6.4451    1.6079 C   0  0  0  0  0  0  0  0  0  0  0  0
    1.3838    3.7628    0.9707 N   0  0  0  0  0  0  0  0  0  0  0  0
    0.6817    0.3664   -0.0728 C   0  0  0  0  0  0  0  0  0  0  0  0
   -0.8267    0.3724    0.2510 C   0  0  0  0  0  0  0  0  0  0  0  0
   -2.9297   -1.5878   -1.2227 C   0  0  0  0  0  0  0  0  0  0  0  0
   -3.0858   -2.8588   -0.6391 C   0  0  0  0  0  0  0  0  0  0  0  0
   -2.3942   -3.9704   -1.1289 C   0  0  0  0  0  0  0  0  0  0  0  0
   -1.5454   -3.8404   -2.2236 C   0  0  0  0  0  0  0  0  0  0  0  0
   -1.3977   -2.6021   -2.8392 C   0  0  0  0  0  0  0  0  0  0  0  0
   -2.0897   -1.4908   -2.3513 C   0  0  0  0  0  0  0  0  0  0  0  0
  1  2  1  0
  2  3  1  0
  3  4  1  1
  3  5  1  0
  3 22  1  0
  5  7  1  0
  5  6  2  0
  7  8  1  0
  7 21  1  0
  8  9  1  0
  9 10  1  0
 10 11  1  0
 10 20  1  0
 11 19  1  0
 11 12  2  0
 12 13  1  0
 13 14  2  0
 14 15  1  0
 15 16  1  0
 15 19  2  0
 16 17  1  0
 16 18  1  0
 20 21  1  0
 22 27  1  0
 22 23  2  0
 23 24  1  0
 24 25  2  0
 25 26  1  0
 26 27  2  0
M  END
>  <Torsion_Angle>  (8) 
35

>  <MMFF94_Energy>  (8) 
67.24

>  <MMFF94_Relative_Energy>  (8) 
7.48

$$$$
Mol1_Deg40
     RDKit          3D

 27 29  0  0  0  0  0  0  0  0999 V2000
   -5.6971    0.3871   -1.9959 C   0  0  0  0  0  0  0  0  0  0  0  0
   -4.9096   -0.6353   -1.4040 O   0  0  0  0  0  0  0  0  0  0  0  0
   -3.8110   -0.2389   -0.5579 C   0  0  2  0  0  0  0  0  0  0  0  0
   -4.4252    0.2265    0.7870 C   0  0  0  0  0  0  0  0  0  0  0  0
   -3.0407    0.9758   -1.1789 C   0  0  0  0  0  0  0  0  0  0  0  0
   -3.5375    2.1086   -1.1290 O   0  0  0  0  0  0  0  0  0  0  0  0
   -1.8947    0.7565   -1.9415 N   0  0  0  0  0  0  0  0  0  0  0  0
   -1.8763   -0.2987   -2.9651 C   0  0  0  0  0  0  0  0  0  0  0  0
   -0.4440   -0.6989   -3.3561 C   0  0  0  0  0  0  0  0  0  0  0  0
    0.3426    0.4902   -3.7273 N   0  0  0  0  0  0  0  0  0  0  0  0
    1.6272    0.1863   -4.1892 C   0  0  0  0  0  0  0  0  0  0  0  0
    2.5810    1.1300   -4.1267 N   0  0  0  0  0  0  0  0  0  0  0  0
    3.7986    0.8210   -4.6051 C   0  0  0  0  0  0  0  0  0  0  0  0
    4.1150   -0.3977   -5.1476 C   0  0  0  0  0  0  0  0  0  0  0  0
    3.0927   -1.3204   -5.1826 C   0  0  0  0  0  0  0  0  0  0  0  0
    3.2827   -2.7105   -5.7536 C   0  0  0  0  0  0  0  0  0  0  0  0
    3.6397   -2.6675   -7.2404 C   0  0  0  0  0  0  0  0  0  0  0  0
    4.3180   -3.5102   -4.9607 C   0  0  0  0  0  0  0  0  0  0  0  0
    1.8600   -1.0325   -4.7090 N   0  0  0  0  0  0  0  0  0  0  0  0
    0.3164    1.5864   -2.7445 C   0  0  0  0  0  0  0  0  0  0  0  0
   -1.1270    1.9381   -2.3437 C   0  0  0  0  0  0  0  0  0  0  0  0
   -2.9330   -1.4573   -0.2087 C   0  0  0  0  0  0  0  0  0  0  0  0
   -3.3525   -2.7659   -0.5103 C   0  0  0  0  0  0  0  0  0  0  0  0
   -2.5588   -3.8689   -0.1873 C   0  0  0  0  0  0  0  0  0  0  0  0
   -1.3361   -3.6865    0.4529 C   0  0  0  0  0  0  0  0  0  0  0  0
   -0.9090   -2.4023    0.7783 C   0  0  0  0  0  0  0  0  0  0  0  0
   -1.7022   -1.2983    0.4577 C   0  0  0  0  0  0  0  0  0  0  0  0
  1  2  1  0
  2  3  1  0
  3  4  1  1
  3  5  1  0
  3 22  1  0
  5  7  1  0
  5  6  2  0
  7  8  1  0
  7 21  1  0
  8  9  1  0
  9 10  1  0
 10 11  1  0
 10 20  1  0
 11 19  1  0
 11 12  2  0
 12 13  1  0
 13 14  2  0
 14 15  1  0
 15 16  1  0
 15 19  2  0
 16 17  1  0
 16 18  1  0
 20 21  1  0
 22 27  1  0
 22 23  2  0
 23 24  1  0
 24 25  2  0
 25 26  1  0
 26 27  2  0
M  END
>  <Torsion_Angle>  (9) 
40

>  <MMFF94_Energy>  (9) 
68.46

>  <MMFF94_Relative_Energy>  (9) 
8.69

$$$$
Mol1_Deg45
     RDKit          3D

 27 29  0  0  0  0  0  0  0  0999 V2000
   -5.6263    0.3046   -2.1236 C   0  0  0  0  0  0  0  0  0  0  0  0
   -4.8425   -0.6876   -1.4769 O   0  0  0  0  0  0  0  0  0  0  0  0
   -3.8118   -0.2445   -0.5699 C   0  0  2  0  0  0  0  0  0  0  0  0
   -4.5183    0.2239    0.7272 C   0  0  0  0  0  0  0  0  0  0  0  0
   -3.0374    0.9773   -1.1716 C   0  0  0  0  0  0  0  0  0  0  0  0
   -3.5444    2.1060   -1.1306 O   0  0  0  0  0  0  0  0  0  0  0  0
   -1.8726    0.7668   -1.9086 N   0  0  0  0  0  0  0  0  0  0  0  0
   -1.8049   -0.3130   -2.9043 C   0  0  0  0  0  0  0  0  0  0  0  0
   -0.3554   -0.6879   -3.2543 C   0  0  0  0  0  0  0  0  0  0  0  0
    0.4109    0.5104   -3.6369 N   0  0  0  0  0  0  0  0  0  0  0  0
    1.7098    0.2264   -4.0699 C   0  0  0  0  0  0  0  0  0  0  0  0
    2.6423    1.1909   -4.0074 N   0  0  0  0  0  0  0  0  0  0  0  0
    3.8741    0.8998   -4.4601 C   0  0  0  0  0  0  0  0  0  0  0  0
    4.2251   -0.3207   -4.9768 C   0  0  0  0  0  0  0  0  0  0  0  0
    3.2232   -1.2654   -5.0130 C   0  0  0  0  0  0  0  0  0  0  0  0
    3.4513   -2.6600   -5.5587 C   0  0  0  0  0  0  0  0  0  0  0  0
    3.8230   -2.6322   -7.0422 C   0  0  0  0  0  0  0  0  0  0  0  0
    4.4958   -3.4231   -4.7423 C   0  0  0  0  0  0  0  0  0  0  0  0
    1.9771   -0.9959   -4.5648 N   0  0  0  0  0  0  0  0  0  0  0  0
    0.3408    1.6257   -2.6783 C   0  0  0  0  0  0  0  0  0  0  0  0
   -1.1183    1.9550   -2.3168 C   0  0  0  0  0  0  0  0  0  0  0  0
   -2.9209   -1.4296   -0.1470 C   0  0  0  0  0  0  0  0  0  0  0  0
   -3.2966   -2.7565   -0.4256 C   0  0  0  0  0  0  0  0  0  0  0  0
   -2.4926   -3.8294   -0.0342 C   0  0  0  0  0  0  0  0  0  0  0  0
   -1.3042   -3.5978    0.6529 C   0  0  0  0  0  0  0  0  0  0  0  0
   -0.9218   -2.2943    0.9565 C   0  0  0  0  0  0  0  0  0  0  0  0
   -1.7251   -1.2202    0.5672 C   0  0  0  0  0  0  0  0  0  0  0  0
  1  2  1  0
  2  3  1  0
  3  4  1  1
  3  5  1  0
  3 22  1  0
  5  7  1  0
  5  6  2  0
  7  8  1  0
  7 21  1  0
  8  9  1  0
  9 10  1  0
 10 11  1  0
 10 20  1  0
 11 19  1  0
 11 12  2  0
 12 13  1  0
 13 14  2  0
 14 15  1  0
 15 16  1  0
 15 19  2  0
 16 17  1  0
 16 18  1  0
 20 21  1  0
 22 27  1  0
 22 23  2  0
 23 24  1  0
 24 25  2  0
 25 26  1  0
 26 27  2  0
M  END
>  <Torsion_Angle>  (10) 
45

>  <MMFF94_Energy>  (10) 
67.65

>  <MMFF94_Relative_Energy>  (10) 
7.89

$$$$
Mol1_Deg50
     RDKit          3D

 27 29  0  0  0  0  0  0  0  0999 V2000
   -5.5441    0.2196   -2.2472 C   0  0  0  0  0  0  0  0  0  0  0  0
   -4.7701   -0.7405   -1.5422 O   0  0  0  0  0  0  0  0  0  0  0  0
   -3.8111   -0.2507   -0.5819 C   0  0  2  0  0  0  0  0  0  0  0  0
   -4.6068    0.2186    0.6617 C   0  0  0  0  0  0  0  0  0  0  0  0
   -3.0331    0.9792   -1.1631 C   0  0  0  0  0  0  0  0  0  0  0  0
   -3.5521    2.1027   -1.1337 O   0  0  0  0  0  0  0  0  0  0  0  0
   -1.8448    0.7806   -1.8650 N   0  0  0  0  0  0  0  0  0  0  0  0
   -1.1016    1.9758   -2.2731 C   0  0  0  0  0  0  0  0  0  0  0  0
    0.3771    1.6721   -2.5725 C   0  0  0  0  0  0  0  0  0  0  0  0
    0.5080    0.5358   -3.4995 N   0  0  0  0  0  0  0  0  0  0  0  0
    1.8282    0.2730   -3.8785 C   0  0  0  0  0  0  0  0  0  0  0  0
    2.7342    1.2620   -3.8094 N   0  0  0  0  0  0  0  0  0  0  0  0
    3.9883    0.9899   -4.2099 C   0  0  0  0  0  0  0  0  0  0  0  0
    4.3872   -0.2347   -4.6800 C   0  0  0  0  0  0  0  0  0  0  0  0
    3.4102   -1.2047   -4.7261 C   0  0  0  0  0  0  0  0  0  0  0  0
    3.6915   -2.6075   -5.2240 C   0  0  0  0  0  0  0  0  0  0  0  0
    4.7188   -3.3236   -4.3455 C   0  0  0  0  0  0  0  0  0  0  0  0
    4.1226   -2.6108   -6.6916 C   0  0  0  0  0  0  0  0  0  0  0  0
    2.1425   -0.9547   -4.3301 N   0  0  0  0  0  0  0  0  0  0  0  0
   -0.2427   -0.6710   -3.1129 C   0  0  0  0  0  0  0  0  0  0  0  0
   -1.7130   -0.3239   -2.8265 C   0  0  0  0  0  0  0  0  0  0  0  0
   -2.9126   -1.4004   -0.0838 C   0  0  0  0  0  0  0  0  0  0  0  0
   -3.2425   -2.7435   -0.3411 C   0  0  0  0  0  0  0  0  0  0  0  0
   -2.4326   -3.7843    0.1190 C   0  0  0  0  0  0  0  0  0  0  0  0
   -1.2846   -3.5032    0.8546 C   0  0  0  0  0  0  0  0  0  0  0  0
   -0.9489   -2.1823    1.1380 C   0  0  0  0  0  0  0  0  0  0  0  0
   -1.7582   -1.1404    0.6800 C   0  0  0  0  0  0  0  0  0  0  0  0
  1  2  1  0
  2  3  1  0
  3  4  1  1
  3  5  1  0
  3 22  1  0
  5  7  1  0
  5  6  2  0
  7  8  1  0
  7 21  1  0
  8  9  1  0
  9 10  1  0
 10 11  1  0
 10 20  1  0
 11 19  1  0
 11 12  2  0
 12 13  1  0
 13 14  2  0
 14 15  1  0
 15 16  1  0
 15 19  2  0
 16 17  1  0
 16 18  1  0
 20 21  1  0
 22 27  1  0
 22 23  2  0
 23 24  1  0
 24 25  2  0
 25 26  1  0
 26 27  2  0
M  END
>  <Torsion_Angle>  (11) 
50

>  <MMFF94_Energy>  (11) 
66.93

>  <MMFF94_Relative_Energy>  (11) 
7.17

$$$$
Mol1_Deg55
     RDKit          3D

 27 29  0  0  0  0  0  0  0  0999 V2000
   -5.4566    0.1332   -2.3592 C   0  0  0  0  0  0  0  0  0  0  0  0
   -4.6927   -0.7934   -1.6000 O   0  0  0  0  0  0  0  0  0  0  0  0
   -3.8088   -0.2577   -0.5930 C   0  0  2  0  0  0  0  0  0  0  0  0
   -4.6882    0.2089    0.5935 C   0  0  0  0  0  0  0  0  0  0  0  0
   -3.0287    0.9810   -1.1539 C   0  0  0  0  0  0  0  0  0  0  0  0
   -3.5604    2.0989   -1.1381 O   0  0  0  0  0  0  0  0  0  0  0  0
   -1.8165    0.7961   -1.8175 N   0  0  0  0  0  0  0  0  0  0  0  0
   -1.6198   -0.3288   -2.7436 C   0  0  0  0  0  0  0  0  0  0  0  0
   -0.1314   -0.6458   -2.9642 C   0  0  0  0  0  0  0  0  0  0  0  0
    0.6049    0.5695   -3.3515 N   0  0  0  0  0  0  0  0  0  0  0  0
    1.9448    0.3301   -3.6729 C   0  0  0  0  0  0  0  0  0  0  0  0
    2.8244    1.3418   -3.5918 N   0  0  0  0  0  0  0  0  0  0  0  0
    4.0994    1.0909   -3.9362 C   0  0  0  0  0  0  0  0  0  0  0  0
    4.5447   -0.1340   -4.3614 C   0  0  0  0  0  0  0  0  0  0  0  0
    3.5929   -1.1280   -4.4233 C   0  0  0  0  0  0  0  0  0  0  0  0
    3.9261   -2.5344   -4.8765 C   0  0  0  0  0  0  0  0  0  0  0  0
    4.4216   -2.5605   -6.3235 C   0  0  0  0  0  0  0  0  0  0  0  0
    4.9289   -3.2074   -3.9377 C   0  0  0  0  0  0  0  0  0  0  0  0
    2.3051   -0.8996   -4.0831 N   0  0  0  0  0  0  0  0  0  0  0  0
    0.4119    1.7231   -2.4575 C   0  0  0  0  0  0  0  0  0  0  0  0
   -1.0837    1.9988   -2.2229 C   0  0  0  0  0  0  0  0  0  0  0  0
   -2.9074   -1.3710   -0.0222 C   0  0  0  0  0  0  0  0  0  0  0  0
   -3.1921   -2.7282   -0.2590 C   0  0  0  0  0  0  0  0  0  0  0  0
   -2.3807   -3.7359    0.2670 C   0  0  0  0  0  0  0  0  0  0  0  0
   -1.2768   -3.4070    1.0489 C   0  0  0  0  0  0  0  0  0  0  0  0
   -0.9872   -2.0712    1.3127 C   0  0  0  0  0  0  0  0  0  0  0  0
   -1.7982   -1.0621    0.7887 C   0  0  0  0  0  0  0  0  0  0  0  0
  1  2  1  0
  2  3  1  0
  3  4  1  1
  3  5  1  0
  3 22  1  0
  5  7  1  0
  5  6  2  0
  7  8  1  0
  7 21  1  0
  8  9  1  0
  9 10  1  0
 10 11  1  0
 10 20  1  0
 11 19  1  0
 11 12  2  0
 12 13  1  0
 13 14  2  0
 14 15  1  0
 15 16  1  0
 15 19  2  0
 16 17  1  0
 16 18  1  0
 20 21  1  0
 22 27  1  0
 22 23  2  0
 23 24  1  0
 24 25  2  0
 25 26  1  0
 26 27  2  0
M  END
>  <Torsion_Angle>  (12) 
55

>  <MMFF94_Energy>  (12) 
66.28

>  <MMFF94_Relative_Energy>  (12) 
6.52

$$$$
Mol1_Deg60
     RDKit          3D

 27 29  0  0  0  0  0  0  0  0999 V2000
   -5.5564    0.0112   -2.2828 C   0  0  0  0  0  0  0  0  0  0  0  0
   -4.6053   -0.8352   -1.6529 O   0  0  0  0  0  0  0  0  0  0  0  0
   -3.8031   -0.2667   -0.5938 C   0  0  2  0  0  0  0  0  0  0  0  0
   -4.7347    0.1941    0.5539 C   0  0  0  0  0  0  0  0  0  0  0  0
   -3.0291    0.9775   -1.1508 C   0  0  0  0  0  0  0  0  0  0  0  0
   -3.5712    2.0909   -1.1432 O   0  0  0  0  0  0  0  0  0  0  0  0
   -1.8061    0.8057   -1.8024 N   0  0  0  0  0  0  0  0  0  0  0  0
   -1.1013    2.0212   -2.2448 C   0  0  0  0  0  0  0  0  0  0  0  0
   -1.4669    2.3756   -3.7025 C   0  0  0  0  0  0  0  0  0  0  0  0
   -1.2132    1.2210   -4.5901 N   0  0  0  0  0  0  0  0  0  0  0  0
    0.1269    1.0339   -4.9356 C   0  0  0  0  0  0  0  0  0  0  0  0
    0.5299   -0.1789   -5.3472 N   0  0  0  0  0  0  0  0  0  0  0  0
    1.8216   -0.3270   -5.6907 C   0  0  0  0  0  0  0  0  0  0  0  0
    2.7436    0.6859   -5.6349 C   0  0  0  0  0  0  0  0  0  0  0  0
    2.2663    1.9006   -5.1978 C   0  0  0  0  0  0  0  0  0  0  0  0
    3.1883    3.0977   -5.0886 C   0  0  0  0  0  0  0  0  0  0  0  0
    2.7254    4.2259   -6.0117 C   0  0  0  0  0  0  0  0  0  0  0  0
    3.2764    3.5821   -3.6404 C   0  0  0  0  0  0  0  0  0  0  0  0
    0.9722    2.0757   -4.8499 N   0  0  0  0  0  0  0  0  0  0  0  0
   -1.9113   -0.0053   -4.1573 C   0  0  0  0  0  0  0  0  0  0  0  0
   -1.5604   -0.3513   -2.6890 C   0  0  0  0  0  0  0  0  0  0  0  0
   -2.9013   -1.3536    0.0246 C   0  0  0  0  0  0  0  0  0  0  0  0
   -3.1757   -2.7197   -0.1712 C   0  0  0  0  0  0  0  0  0  0  0  0
   -2.3726   -3.7052    0.4071 C   0  0  0  0  0  0  0  0  0  0  0  0
   -1.2878   -3.3446    1.2016 C   0  0  0  0  0  0  0  0  0  0  0  0
   -1.0084   -1.9991    1.4241 C   0  0  0  0  0  0  0  0  0  0  0  0
   -1.8108   -1.0120    0.8471 C   0  0  0  0  0  0  0  0  0  0  0  0
  1  2  1  0
  2  3  1  0
  3  4  1  1
  3  5  1  0
  3 22  1  0
  5  7  1  0
  5  6  2  0
  7  8  1  0
  7 21  1  0
  8  9  1  0
  9 10  1  0
 10 11  1  0
 10 20  1  0
 11 19  1  0
 11 12  2  0
 12 13  1  0
 13 14  2  0
 14 15  1  0
 15 16  1  0
 15 19  2  0
 16 17  1  0
 16 18  1  0
 20 21  1  0
 22 27  1  0
 22 23  2  0
 23 24  1  0
 24 25  2  0
 25 26  1  0
 26 27  2  0
M  END
>  <Torsion_Angle>  (13) 
60

>  <MMFF94_Energy>  (13) 
64.40

>  <MMFF94_Relative_Energy>  (13) 
4.64

$$$$
Mol1_Deg65
     RDKit          3D

 27 29  0  0  0  0  0  0  0  0999 V2000
   -5.2657   -0.0493   -2.5546 C   0  0  0  0  0  0  0  0  0  0  0  0
   -4.5235   -0.9000   -1.6914 O   0  0  0  0  0  0  0  0  0  0  0  0
   -3.8015   -0.2713   -0.6115 C   0  0  2  0  0  0  0  0  0  0  0  0
   -4.8362    0.1846    0.4459 C   0  0  0  0  0  0  0  0  0  0  0  0
   -3.0210    0.9843   -1.1366 C   0  0  0  0  0  0  0  0  0  0  0  0
   -3.5758    2.0908   -1.1481 O   0  0  0  0  0  0  0  0  0  0  0  0
   -1.7665    0.8256   -1.7245 N   0  0  0  0  0  0  0  0  0  0  0  0
   -1.4463   -0.3370   -2.5658 C   0  0  0  0  0  0  0  0  0  0  0  0
    0.0678   -0.5897   -2.6583 C   0  0  0  0  0  0  0  0  0  0  0  0
    0.7750    0.6388   -3.0571 N   0  0  0  0  0  0  0  0  0  0  0  0
    2.1446    0.4493   -3.2681 C   0  0  0  0  0  0  0  0  0  0  0  0
    2.9691    1.5058   -3.1792 N   0  0  0  0  0  0  0  0  0  0  0  0
    4.2761    1.3007   -3.4175 C   0  0  0  0  0  0  0  0  0  0  0  0
    4.8066    0.0792   -3.7430 C   0  0  0  0  0  0  0  0  0  0  0  0
    3.9080   -0.9622   -3.8188 C   0  0  0  0  0  0  0  0  0  0  0  0
    4.3373   -2.3717   -4.1702 C   0  0  0  0  0  0  0  0  0  0  0  0
    4.9364   -2.4469   -5.5757 C   0  0  0  0  0  0  0  0  0  0  0  0
    5.2998   -2.9453   -3.1289 C   0  0  0  0  0  0  0  0  0  0  0  0
    2.5895   -0.7804   -3.5844 N   0  0  0  0  0  0  0  0  0  0  0  0
    0.4647    1.8240   -2.2411 C   0  0  0  0  0  0  0  0  0  0  0  0
   -1.0550    2.0402   -2.1327 C   0  0  0  0  0  0  0  0  0  0  0  0
   -2.9098   -1.3052    0.1064 C   0  0  0  0  0  0  0  0  0  0  0  0
   -3.1091   -2.6859   -0.0759 C   0  0  0  0  0  0  0  0  0  0  0  0
   -2.3080   -3.6214    0.5824 C   0  0  0  0  0  0  0  0  0  0  0  0
   -1.3010   -3.1953    1.4441 C   0  0  0  0  0  0  0  0  0  0  0  0
   -1.0989   -1.8341    1.6551 C   0  0  0  0  0  0  0  0  0  0  0  0
   -1.8998   -0.8970    0.9988 C   0  0  0  0  0  0  0  0  0  0  0  0
  1  2  1  0
  2  3  1  0
  3  4  1  1
  3  5  1  0
  3 22  1  0
  5  7  1  0
  5  6  2  0
  7  8  1  0
  7 21  1  0
  8  9  1  0
  9 10  1  0
 10 11  1  0
 10 20  1  0
 11 19  1  0
 11 12  2  0
 12 13  1  0
 13 14  2  0
 14 15  1  0
 15 16  1  0
 15 19  2  0
 16 17  1  0
 16 18  1  0
 20 21  1  0
 22 27  1  0
 22 23  2  0
 23 24  1  0
 24 25  2  0
 25 26  1  0
 26 27  2  0
M  END
>  <Torsion_Angle>  (14) 
65

>  <MMFF94_Energy>  (14) 
65.01

>  <MMFF94_Relative_Energy>  (14) 
5.25

$$$$
Mol1_Deg70
     RDKit          3D

 27 29  0  0  0  0  0  0  0  0999 V2000
   -5.1649   -0.1448   -2.6364 C   0  0  0  0  0  0  0  0  0  0  0  0
   -4.4332   -0.9528   -1.7245 O   0  0  0  0  0  0  0  0  0  0  0  0
   -3.7966   -0.2781   -0.6188 C   0  0  2  0  0  0  0  0  0  0  0  0
   -4.9021    0.1695    0.3675 C   0  0  0  0  0  0  0  0  0  0  0  0
   -3.0174    0.9858   -1.1280 C   0  0  0  0  0  0  0  0  0  0  0  0
   -3.5831    2.0865   -1.1539 O   0  0  0  0  0  0  0  0  0  0  0  0
   -1.7435    0.8408   -1.6762 N   0  0  0  0  0  0  0  0  0  0  0  0
   -1.3614   -0.3381   -2.4673 C   0  0  0  0  0  0  0  0  0  0  0  0
    0.1604   -0.5577   -2.4876 C   0  0  0  0  0  0  0  0  0  0  0  0
    0.8571    0.6751   -2.8920 N   0  0  0  0  0  0  0  0  0  0  0  0
    2.2383    0.5106   -3.0373 C   0  0  0  0  0  0  0  0  0  0  0  0
    3.0358    1.5880   -2.9514 N   0  0  0  0  0  0  0  0  0  0  0  0
    4.3565    1.4045   -3.1254 C   0  0  0  0  0  0  0  0  0  0  0  0
    4.9273    0.1848   -3.3825 C   0  0  0  0  0  0  0  0  0  0  0  0
    4.0540   -0.8765   -3.4582 C   0  0  0  0  0  0  0  0  0  0  0  0
    4.5626   -2.2756   -3.7390 C   0  0  0  0  0  0  0  0  0  0  0  0
    3.9778   -2.8138   -5.0458 C   0  0  0  0  0  0  0  0  0  0  0  0
    4.2419   -3.2131   -2.5736 C   0  0  0  0  0  0  0  0  0  0  0  0
    2.7226   -0.7186   -3.2892 N   0  0  0  0  0  0  0  0  0  0  0  0
    0.4868    1.8750   -2.1240 C   0  0  0  0  0  0  0  0  0  0  0  0
   -1.0404    2.0599   -2.0860 C   0  0  0  0  0  0  0  0  0  0  0  0
   -2.9173   -1.2691    0.1719 C   0  0  0  0  0  0  0  0  0  0  0  0
   -1.9629   -0.8110    1.1004 C   0  0  0  0  0  0  0  0  0  0  0  0
   -1.1734   -1.7092    1.8218 C   0  0  0  0  0  0  0  0  0  0  0  0
   -1.3322   -3.0803    1.6404 C   0  0  0  0  0  0  0  0  0  0  0  0
   -2.2849   -3.5553    0.7432 C   0  0  0  0  0  0  0  0  0  0  0  0
   -3.0747   -2.6589    0.0200 C   0  0  0  0  0  0  0  0  0  0  0  0
  1  2  1  0
  2  3  1  0
  3  4  1  1
  3  5  1  0
  3 22  1  0
  5  7  1  0
  5  6  2  0
  7  8  1  0
  7 21  1  0
  8  9  1  0
  9 10  1  0
 10 11  1  0
 10 20  1  0
 11 19  1  0
 11 12  2  0
 12 13  1  0
 13 14  2  0
 14 15  1  0
 15 16  1  0
 15 19  2  0
 16 17  1  0
 16 18  1  0
 20 21  1  0
 22 27  1  0
 22 23  2  0
 23 24  1  0
 24 25  2  0
 25 26  1  0
 26 27  2  0
M  END
>  <Torsion_Angle>  (15) 
70

>  <MMFF94_Energy>  (15) 
63.40

>  <MMFF94_Relative_Energy>  (15) 
3.64

$$$$
Mol1_Deg75
     RDKit          3D

 27 29  0  0  0  0  0  0  0  0999 V2000
   -5.0795   -0.2482   -2.6968 C   0  0  0  0  0  0  0  0  0  0  0  0
   -4.3389   -1.0050   -1.7488 O   0  0  0  0  0  0  0  0  0  0  0  0
   -3.7919   -0.2842   -0.6242 C   0  0  2  0  0  0  0  0  0  0  0  0
   -4.9625    0.1548    0.2875 C   0  0  0  0  0  0  0  0  0  0  0  0
   -3.0148    0.9865   -1.1214 C   0  0  0  0  0  0  0  0  0  0  0  0
   -3.5895    2.0822   -1.1592 O   0  0  0  0  0  0  0  0  0  0  0  0
   -1.7256    0.8540   -1.6383 N   0  0  0  0  0  0  0  0  0  0  0  0
   -1.0432    2.0785   -2.0675 C   0  0  0  0  0  0  0  0  0  0  0  0
    0.4882    1.9321   -2.0780 C   0  0  0  0  0  0  0  0  0  0  0  0
    0.8989    0.7234   -2.8101 N   0  0  0  0  0  0  0  0  0  0  0  0
    2.2850    0.5959   -2.9441 C   0  0  0  0  0  0  0  0  0  0  0  0
    2.8077   -0.6198   -3.1727 N   0  0  0  0  0  0  0  0  0  0  0  0
    4.1397   -0.7081   -3.3310 C   0  0  0  0  0  0  0  0  0  0  0  0
    4.9851    0.3696   -3.2720 C   0  0  0  0  0  0  0  0  0  0  0  0
    4.3861    1.5874   -3.0357 C   0  0  0  0  0  0  0  0  0  0  0  0
    5.1830    2.8727   -2.9475 C   0  0  0  0  0  0  0  0  0  0  0  0
    6.1769    2.8439   -1.7851 C   0  0  0  0  0  0  0  0  0  0  0  0
    5.8870    3.1925   -4.2674 C   0  0  0  0  0  0  0  0  0  0  0  0
    3.0492    1.7011   -2.8732 N   0  0  0  0  0  0  0  0  0  0  0  0
    0.2326   -0.5155   -2.3765 C   0  0  0  0  0  0  0  0  0  0  0  0
   -1.2957   -0.3397   -2.3818 C   0  0  0  0  0  0  0  0  0  0  0  0
   -2.9307   -1.2295    0.2392 C   0  0  0  0  0  0  0  0  0  0  0  0
   -2.0286   -0.7210    1.1933 C   0  0  0  0  0  0  0  0  0  0  0  0
   -1.2575   -1.5784    1.9813 C   0  0  0  0  0  0  0  0  0  0  0  0
   -1.3835   -2.9578    1.8416 C   0  0  0  0  0  0  0  0  0  0  0  0
   -2.2849   -3.4820    0.9192 C   0  0  0  0  0  0  0  0  0  0  0  0
   -3.0560   -2.6265    0.1294 C   0  0  0  0  0  0  0  0  0  0  0  0
  1  2  1  0
  2  3  1  0
  3  4  1  1
  3  5  1  0
  3 22  1  0
  5  7  1  0
  5  6  2  0
  7  8  1  0
  7 21  1  0
  8  9  1  0
  9 10  1  0
 10 11  1  0
 10 20  1  0
 11 19  1  0
 11 12  2  0
 12 13  1  0
 13 14  2  0
 14 15  1  0
 15 16  1  0
 15 19  2  0
 16 17  1  0
 16 18  1  0
 20 21  1  0
 22 27  1  0
 22 23  2  0
 23 24  1  0
 24 25  2  0
 25 26  1  0
 26 27  2  0
M  END
>  <Torsion_Angle>  (16) 
75

>  <MMFF94_Energy>  (16) 
63.85

>  <MMFF94_Relative_Energy>  (16) 
4.09

$$$$
Mol1_Deg80
     RDKit          3D

 27 29  0  0  0  0  0  0  0  0999 V2000
   -5.1801   -0.4021   -2.6182 C   0  0  0  0  0  0  0  0  0  0  0  0
   -4.2396   -1.0438   -1.7674 O   0  0  0  0  0  0  0  0  0  0  0  0
   -3.7846   -0.2929   -0.6194 C   0  0  2  0  0  0  0  0  0  0  0  0
   -4.9984    0.1382    0.2379 C   0  0  0  0  0  0  0  0  0  0  0  0
   -3.0144    0.9824   -1.1172 C   0  0  0  0  0  0  0  0  0  0  0  0
   -3.5981    2.0733   -1.1682 O   0  0  0  0  0  0  0  0  0  0  0  0
   -1.7154    0.8624   -1.6134 N   0  0  0  0  0  0  0  0  0  0  0  0
   -1.0604    2.0779   -2.1040 C   0  0  0  0  0  0  0  0  0  0  0  0
   -1.2992    2.2640   -3.6142 C   0  0  0  0  0  0  0  0  0  0  0  0
   -0.8978    1.0479   -4.3503 N   0  0  0  0  0  0  0  0  0  0  0  0
   -1.0016    1.1784   -5.7385 C   0  0  0  0  0  0  0  0  0  0  0  0
   -1.1088    0.0707   -6.4908 N   0  0  0  0  0  0  0  0  0  0  0  0
   -1.1788    0.2248   -7.8248 C   0  0  0  0  0  0  0  0  0  0  0  0
   -1.1476    1.4434   -8.4521 C   0  0  0  0  0  0  0  0  0  0  0  0
   -1.0355    2.5365   -7.6231 C   0  0  0  0  0  0  0  0  0  0  0  0
   -0.9886    3.9379   -8.1967 C   0  0  0  0  0  0  0  0  0  0  0  0
    0.3399    4.6174   -7.8609 C   0  0  0  0  0  0  0  0  0  0  0  0
   -2.1679    4.7708   -7.6913 C   0  0  0  0  0  0  0  0  0  0  0  0
   -0.9610    2.4089   -6.2798 N   0  0  0  0  0  0  0  0  0  0  0  0
   -1.4493   -0.2203   -3.8353 C   0  0  0  0  0  0  0  0  0  0  0  0
   -1.2342   -0.3388   -2.3104 C   0  0  0  0  0  0  0  0  0  0  0  0
   -2.9384   -1.2030    0.2935 C   0  0  0  0  0  0  0  0  0  0  0  0
   -3.0499   -2.6038    0.2216 C   0  0  0  0  0  0  0  0  0  0  0  0
   -2.3017   -3.4292    1.0638 C   0  0  0  0  0  0  0  0  0  0  0  0
   -1.4377   -2.8703    2.0015 C   0  0  0  0  0  0  0  0  0  0  0  0
   -1.3257   -1.4863    2.1028 C   0  0  0  0  0  0  0  0  0  0  0  0
   -2.0734   -0.6590    1.2617 C   0  0  0  0  0  0  0  0  0  0  0  0
  1  2  1  0
  2  3  1  0
  3  4  1  1
  3  5  1  0
  3 22  1  0
  5  7  1  0
  5  6  2  0
  7  8  1  0
  7 21  1  0
  8  9  1  0
  9 10  1  0
 10 11  1  0
 10 20  1  0
 11 19  1  0
 11 12  2  0
 12 13  1  0
 13 14  2  0
 14 15  1  0
 15 16  1  0
 15 19  2  0
 16 17  1  0
 16 18  1  0
 20 21  1  0
 22 27  1  0
 22 23  2  0
 23 24  1  0
 24 25  2  0
 25 26  1  0
 26 27  2  0
M  END
>  <Torsion_Angle>  (17) 
80

>  <MMFF94_Energy>  (17) 
61.99

>  <MMFF94_Relative_Energy>  (17) 
2.22

$$$$
Mol1_Deg85
     RDKit          3D

 27 29  0  0  0  0  0  0  0  0999 V2000
   -5.0512   -0.4995   -2.6928 C   0  0  0  0  0  0  0  0  0  0  0  0
   -4.1436   -1.0934   -1.7741 O   0  0  0  0  0  0  0  0  0  0  0  0
   -3.7780   -0.2991   -0.6236 C   0  0  2  0  0  0  0  0  0  0  0  0
   -5.0510    0.1182    0.1502 C   0  0  0  0  0  0  0  0  0  0  0  0
   -3.0100    0.9843   -1.1067 C   0  0  0  0  0  0  0  0  0  0  0  0
   -3.6044    2.0683   -1.1766 O   0  0  0  0  0  0  0  0  0  0  0  0
   -1.6927    0.8796   -1.5548 N   0  0  0  0  0  0  0  0  0  0  0  0
   -1.0392    2.0962   -2.0443 C   0  0  0  0  0  0  0  0  0  0  0  0
   -1.2052    2.2356   -3.5691 C   0  0  0  0  0  0  0  0  0  0  0  0
   -0.7406    1.0097   -4.2497 N   0  0  0  0  0  0  0  0  0  0  0  0
   -0.7742    1.1006   -5.6444 C   0  0  0  0  0  0  0  0  0  0  0  0
   -0.8185   -0.0289   -6.3702 N   0  0  0  0  0  0  0  0  0  0  0  0
   -0.8205    0.0881   -7.7099 C   0  0  0  0  0  0  0  0  0  0  0  0
   -0.7815    1.2901   -8.3682 C   0  0  0  0  0  0  0  0  0  0  0  0
   -0.7367    2.4071   -7.5651 C   0  0  0  0  0  0  0  0  0  0  0  0
   -0.6871    3.7935   -8.1739 C   0  0  0  0  0  0  0  0  0  0  0  0
    0.6139    4.5042   -7.7980 C   0  0  0  0  0  0  0  0  0  0  0  0
   -1.9010    4.6192   -7.7443 C   0  0  0  0  0  0  0  0  0  0  0  0
   -0.7308    2.3168   -6.2167 N   0  0  0  0  0  0  0  0  0  0  0  0
   -1.2894   -0.2569   -3.7279 C   0  0  0  0  0  0  0  0  0  0  0  0
   -1.1508   -0.3290   -2.1914 C   0  0  0  0  0  0  0  0  0  0  0  0
   -2.9613   -1.1612    0.3605 C   0  0  0  0  0  0  0  0  0  0  0  0
   -3.0332   -2.5660    0.3231 C   0  0  0  0  0  0  0  0  0  0  0  0
   -2.3125   -3.3476    1.2286 C   0  0  0  0  0  0  0  0  0  0  0  0
   -1.5166   -2.7402    2.1959 C   0  0  0  0  0  0  0  0  0  0  0  0
   -1.4453   -1.3514    2.2631 C   0  0  0  0  0  0  0  0  0  0  0  0
   -2.1655   -0.5678    1.3586 C   0  0  0  0  0  0  0  0  0  0  0  0
  1  2  1  0
  2  3  1  0
  3  4  1  1
  3  5  1  0
  3 22  1  0
  5  7  1  0
  5  6  2  0
  7  8  1  0
  7 21  1  0
  8  9  1  0
  9 10  1  0
 10 11  1  0
 10 20  1  0
 11 19  1  0
 11 12  2  0
 12 13  1  0
 13 14  2  0
 14 15  1  0
 15 16  1  0
 15 19  2  0
 16 17  1  0
 16 18  1  0
 20 21  1  0
 22 27  1  0
 22 23  2  0
 23 24  1  0
 24 25  2  0
 25 26  1  0
 26 27  2  0
M  END
>  <Torsion_Angle>  (18) 
85

>  <MMFF94_Energy>  (18) 
61.59

>  <MMFF94_Relative_Energy>  (18) 
1.82

$$$$
Mol1_Deg90
     RDKit          3D

 27 29  0  0  0  0  0  0  0  0999 V2000
   -4.7898   -0.5731   -2.8311 C   0  0  0  0  0  0  0  0  0  0  0  0
   -4.0456   -1.1528   -1.7682 O   0  0  0  0  0  0  0  0  0  0  0  0
   -3.7751   -0.3017   -0.6341 C   0  0  2  0  0  0  0  0  0  0  0  0
   -5.1131    0.0985    0.0299 C   0  0  0  0  0  0  0  0  0  0  0  0
   -3.0064    0.9891   -1.0992 C   0  0  0  0  0  0  0  0  0  0  0  0
   -3.6066    2.0688   -1.1786 O   0  0  0  0  0  0  0  0  0  0  0  0
   -1.6743    0.8935   -1.5033 N   0  0  0  0  0  0  0  0  0  0  0  0
   -1.0891   -0.3326   -2.0659 C   0  0  0  0  0  0  0  0  0  0  0  0
    0.4358   -0.3996   -1.8747 C   0  0  0  0  0  0  0  0  0  0  0  0
    1.0762    0.8377   -2.3495 N   0  0  0  0  0  0  0  0  0  0  0  0
    2.4736    0.7915   -2.3083 C   0  0  0  0  0  0  0  0  0  0  0  0
    3.1628    1.9439   -2.2751 N   0  0  0  0  0  0  0  0  0  0  0  0
    4.5055    1.8704   -2.2667 C   0  0  0  0  0  0  0  0  0  0  0  0
    5.2023    0.6899   -2.2886 C   0  0  0  0  0  0  0  0  0  0  0  0
    4.4357   -0.4528   -2.3227 C   0  0  0  0  0  0  0  0  0  0  0  0
    5.0890   -1.8194   -2.3502 C   0  0  0  0  0  0  0  0  0  0  0  0
    4.7256   -2.5692   -3.6328 C   0  0  0  0  0  0  0  0  0  0  0  0
    4.6967   -2.6328   -1.1156 C   0  0  0  0  0  0  0  0  0  0  0  0
    3.0851   -0.4061   -2.3343 N   0  0  0  0  0  0  0  0  0  0  0  0
    0.5147    2.0747   -1.7844 C   0  0  0  0  0  0  0  0  0  0  0  0
   -1.0129    2.1196   -1.9608 C   0  0  0  0  0  0  0  0  0  0  0  0
   -3.0020   -1.0988    0.4383 C   0  0  0  0  0  0  0  0  0  0  0  0
   -2.2899   -0.4409    1.4592 C   0  0  0  0  0  0  0  0  0  0  0  0
   -1.6009   -1.1644    2.4352 C   0  0  0  0  0  0  0  0  0  0  0  0
   -1.6219   -2.5564    2.4177 C   0  0  0  0  0  0  0  0  0  0  0  0
   -2.3369   -3.2269    1.4292 C   0  0  0  0  0  0  0  0  0  0  0  0
   -3.0258   -2.5054    0.4520 C   0  0  0  0  0  0  0  0  0  0  0  0
  1  2  1  0
  2  3  1  0
  3  4  1  1
  3  5  1  0
  3 22  1  0
  5  7  1  0
  5  6  2  0
  7  8  1  0
  7 21  1  0
  8  9  1  0
  9 10  1  0
 10 11  1  0
 10 20  1  0
 11 19  1  0
 11 12  2  0
 12 13  1  0
 13 14  2  0
 14 15  1  0
 15 16  1  0
 15 19  2  0
 16 17  1  0
 16 18  1  0
 20 21  1  0
 22 27  1  0
 22 23  2  0
 23 24  1  0
 24 25  2  0
 25 26  1  0
 26 27  2  0
M  END
>  <Torsion_Angle>  (19) 
90

>  <MMFF94_Energy>  (19) 
61.31

>  <MMFF94_Relative_Energy>  (19) 
1.55

$$$$
Mol1_Deg95
     RDKit          3D

 27 29  0  0  0  0  0  0  0  0999 V2000
   -4.7767   -0.6946   -2.8071 C   0  0  0  0  0  0  0  0  0  0  0  0
   -3.9491   -1.1872   -1.7612 O   0  0  0  0  0  0  0  0  0  0  0  0
   -3.7643   -0.3104   -0.6281 C   0  0  2  0  0  0  0  0  0  0  0  0
   -5.1384    0.0728   -0.0304 C   0  0  0  0  0  0  0  0  0  0  0  0
   -3.0019    0.9883   -1.0855 C   0  0  0  0  0  0  0  0  0  0  0  0
   -3.6153    2.0583   -1.1943 O   0  0  0  0  0  0  0  0  0  0  0  0
   -1.6548    0.9150   -1.4388 N   0  0  0  0  0  0  0  0  0  0  0  0
   -1.0046    2.1318   -1.9319 C   0  0  0  0  0  0  0  0  0  0  0  0
   -1.0234    2.1772   -3.4710 C   0  0  0  0  0  0  0  0  0  0  0  0
   -0.4447    0.9378   -4.0289 N   0  0  0  0  0  0  0  0  0  0  0  0
   -0.3456    0.9485   -5.4234 C   0  0  0  0  0  0  0  0  0  0  0  0
   -0.2718   -0.2209   -6.0804 N   0  0  0  0  0  0  0  0  0  0  0  0
   -0.1484   -0.1798   -7.4188 C   0  0  0  0  0  0  0  0  0  0  0  0
   -0.0960    0.9836   -8.1422 C   0  0  0  0  0  0  0  0  0  0  0  0
   -0.1766    2.1450   -7.4077 C   0  0  0  0  0  0  0  0  0  0  0  0
   -0.1260    3.4956   -8.0922 C   0  0  0  0  0  0  0  0  0  0  0  0
    1.1033    4.2859   -7.6412 C   0  0  0  0  0  0  0  0  0  0  0  0
   -1.4079    4.2873   -7.8279 C   0  0  0  0  0  0  0  0  0  0  0  0
   -0.2983    2.1312   -6.0618 N   0  0  0  0  0  0  0  0  0  0  0  0
   -0.9875   -0.3230   -3.4862 C   0  0  0  0  0  0  0  0  0  0  0  0
   -1.0021   -0.3011   -1.9423 C   0  0  0  0  0  0  0  0  0  0  0  0
   -3.0233   -1.0713    0.4912 C   0  0  0  0  0  0  0  0  0  0  0  0
   -3.0256   -2.4778    0.5341 C   0  0  0  0  0  0  0  0  0  0  0  0
   -2.3745   -3.1674    1.5593 C   0  0  0  0  0  0  0  0  0  0  0  0
   -1.7197   -2.4648    2.5669 C   0  0  0  0  0  0  0  0  0  0  0  0
   -1.7203   -1.0726    2.5545 C   0  0  0  0  0  0  0  0  0  0  0  0
   -2.3712   -0.3808    1.5303 C   0  0  0  0  0  0  0  0  0  0  0  0
  1  2  1  0
  2  3  1  0
  3  4  1  1
  3  5  1  0
  3 22  1  0
  5  7  1  0
  5  6  2  0
  7  8  1  0
  7 21  1  0
  8  9  1  0
  9 10  1  0
 10 11  1  0
 10 20  1  0
 11 19  1  0
 11 12  2  0
 12 13  1  0
 13 14  2  0
 14 15  1  0
 15 16  1  0
 15 19  2  0
 16 17  1  0
 16 18  1  0
 20 21  1  0
 22 27  1  0
 22 23  2  0
 23 24  1  0
 24 25  2  0
 25 26  1  0
 26 27  2  0
M  END
>  <Torsion_Angle>  (20) 
95

>  <MMFF94_Energy>  (20) 
60.93

>  <MMFF94_Relative_Energy>  (20) 
1.17

$$$$
Mol1_Deg100
     RDKit          3D

 27 29  0  0  0  0  0  0  0  0999 V2000
   -4.5162   -0.7728   -2.9014 C   0  0  0  0  0  0  0  0  0  0  0  0
   -3.8499   -1.2419   -1.7368 O   0  0  0  0  0  0  0  0  0  0  0  0
   -3.7614   -0.3123   -0.6365 C   0  0  2  0  0  0  0  0  0  0  0  0
   -5.1858    0.0490   -0.1565 C   0  0  0  0  0  0  0  0  0  0  0  0
   -2.9994    0.9927   -1.0798 C   0  0  0  0  0  0  0  0  0  0  0  0
   -3.6170    2.0592   -1.1954 O   0  0  0  0  0  0  0  0  0  0  0  0
   -1.6413    0.9272   -1.3944 N   0  0  0  0  0  0  0  0  0  0  0  0
   -0.9625   -0.3040   -1.8249 C   0  0  0  0  0  0  0  0  0  0  0  0
    0.5449   -0.2894   -1.5164 C   0  0  0  0  0  0  0  0  0  0  0  0
    1.1696    0.9453   -2.0172 N   0  0  0  0  0  0  0  0  0  0  0  0
    2.5606    0.9629   -1.8710 C   0  0  0  0  0  0  0  0  0  0  0  0
    3.1986    2.1446   -1.8464 N   0  0  0  0  0  0  0  0  0  0  0  0
    4.5387    2.1305   -1.7357 C   0  0  0  0  0  0  0  0  0  0  0  0
    5.2820    0.9820   -1.6466 C   0  0  0  0  0  0  0  0  0  0  0  0
    4.5666   -0.1935   -1.6788 C   0  0  0  0  0  0  0  0  0  0  0  0
    5.2747   -1.5300   -1.5914 C   0  0  0  0  0  0  0  0  0  0  0  0
    5.0470   -2.3487   -2.8631 C   0  0  0  0  0  0  0  0  0  0  0  0
    4.8170   -2.3070   -0.3558 C   0  0  0  0  0  0  0  0  0  0  0  0
    3.2199   -0.2067   -1.7915 N   0  0  0  0  0  0  0  0  0  0  0  0
    0.5176    2.1853   -1.5686 C   0  0  0  0  0  0  0  0  0  0  0  0
   -0.9911    2.1540   -1.8669 C   0  0  0  0  0  0  0  0  0  0  0  0
   -3.0788   -1.0041    0.5636 C   0  0  0  0  0  0  0  0  0  0  0  0
   -2.5147   -0.2513    1.6110 C   0  0  0  0  0  0  0  0  0  0  0  0
   -1.9083   -0.8796    2.7012 C   0  0  0  0  0  0  0  0  0  0  0  0
   -1.8662   -2.2693    2.7720 C   0  0  0  0  0  0  0  0  0  0  0  0
   -2.4361   -3.0330    1.7571 C   0  0  0  0  0  0  0  0  0  0  0  0
   -3.0423   -2.4069    0.6659 C   0  0  0  0  0  0  0  0  0  0  0  0
  1  2  1  0
  2  3  1  0
  3  4  1  1
  3  5  1  0
  3 22  1  0
  5  7  1  0
  5  6  2  0
  7  8  1  0
  7 21  1  0
  8  9  1  0
  9 10  1  0
 10 11  1  0
 10 20  1  0
 11 19  1  0
 11 12  2  0
 12 13  1  0
 13 14  2  0
 14 15  1  0
 15 16  1  0
 15 19  2  0
 16 17  1  0
 16 18  1  0
 20 21  1  0
 22 27  1  0
 22 23  2  0
 23 24  1  0
 24 25  2  0
 25 26  1  0
 26 27  2  0
M  END
>  <Torsion_Angle>  (21) 
100

>  <MMFF94_Energy>  (21) 
60.63

>  <MMFF94_Relative_Energy>  (21) 
0.87

$$$$
Mol1_Deg105
     RDKit          3D

 27 29  0  0  0  0  0  0  0  0999 V2000
   -4.3714   -0.8760   -2.9196 C   0  0  0  0  0  0  0  0  0  0  0  0
   -3.7521   -1.2840   -1.7071 O   0  0  0  0  0  0  0  0  0  0  0  0
   -3.7559   -0.3161   -0.6370 C   0  0  2  0  0  0  0  0  0  0  0  0
   -5.2154    0.0240   -0.2574 C   0  0  0  0  0  0  0  0  0  0  0  0
   -2.9968    0.9943   -1.0721 C   0  0  0  0  0  0  0  0  0  0  0  0
   -3.6206    2.0556   -1.2020 O   0  0  0  0  0  0  0  0  0  0  0  0
   -1.6284    0.9413   -1.3544 N   0  0  0  0  0  0  0  0  0  0  0  0
   -0.9300   -0.3052   -1.7332 C   0  0  0  0  0  0  0  0  0  0  0  0
    0.5934   -0.2273   -1.5059 C   0  0  0  0  0  0  0  0  0  0  0  0
    1.1575    0.9835   -2.1214 N   0  0  0  0  0  0  0  0  0  0  0  0
    1.3132    0.9181   -3.5064 C   0  0  0  0  0  0  0  0  0  0  0  0
    1.4529   -0.2829   -4.0900 N   0  0  0  0  0  0  0  0  0  0  0  0
    1.6180   -0.3149   -5.4242 C   0  0  0  0  0  0  0  0  0  0  0  0
    1.6413    0.8054   -6.2142 C   0  0  0  0  0  0  0  0  0  0  0  0
    1.4855    2.0025   -5.5532 C   0  0  0  0  0  0  0  0  0  0  0  0
    1.4886    3.3116   -6.3157 C   0  0  0  0  0  0  0  0  0  0  0  0
    2.6525    4.1974   -5.8687 C   0  0  0  0  0  0  0  0  0  0  0  0
    0.1545    4.0404   -6.1453 C   0  0  0  0  0  0  0  0  0  0  0  0
    1.3237    2.0618   -4.2128 N   0  0  0  0  0  0  0  0  0  0  0  0
    0.5210    2.2145   -1.6280 C   0  0  0  0  0  0  0  0  0  0  0  0
   -1.0025    2.1792   -1.8537 C   0  0  0  0  0  0  0  0  0  0  0  0
   -3.1330   -0.9511    0.6252 C   0  0  0  0  0  0  0  0  0  0  0  0
   -2.6458   -0.1507    1.6759 C   0  0  0  0  0  0  0  0  0  0  0  0
   -2.0966   -0.7280    2.8231 C   0  0  0  0  0  0  0  0  0  0  0  0
   -2.0359   -2.1133    2.9478 C   0  0  0  0  0  0  0  0  0  0  0  0
   -2.5298   -2.9236    1.9292 C   0  0  0  0  0  0  0  0  0  0  0  0
   -3.0789   -2.3485    0.7811 C   0  0  0  0  0  0  0  0  0  0  0  0
  1  2  1  0
  2  3  1  0
  3  4  1  1
  3  5  1  0
  3 22  1  0
  5  7  1  0
  5  6  2  0
  7  8  1  0
  7 21  1  0
  8  9  1  0
  9 10  1  0
 10 11  1  0
 10 20  1  0
 11 19  1  0
 11 12  2  0
 12 13  1  0
 13 14  2  0
 14 15  1  0
 15 16  1  0
 15 19  2  0
 16 17  1  0
 16 18  1  0
 20 21  1  0
 22 27  1  0
 22 23  2  0
 23 24  1  0
 24 25  2  0
 25 26  1  0
 26 27  2  0
M  END
>  <Torsion_Angle>  (22) 
105

>  <MMFF94_Energy>  (22) 
59.76

>  <MMFF94_Relative_Energy>  (22) 
0.00

$$$$
Mol1_Deg110
     RDKit          3D

 27 29  0  0  0  0  0  0  0  0999 V2000
   -4.2120   -0.9617   -2.9304 C   0  0  0  0  0  0  0  0  0  0  0  0
   -3.6588   -1.3205   -1.6712 O   0  0  0  0  0  0  0  0  0  0  0  0
   -3.7475   -0.3208   -0.6350 C   0  0  2  0  0  0  0  0  0  0  0  0
   -5.2338   -0.0075   -0.3497 C   0  0  0  0  0  0  0  0  0  0  0  0
   -2.9927    0.9971   -1.0588 C   0  0  0  0  0  0  0  0  0  0  0  0
   -3.6256    2.0496   -1.2135 O   0  0  0  0  0  0  0  0  0  0  0  0
   -1.6157    0.9632   -1.2804 N   0  0  0  0  0  0  0  0  0  0  0  0
   -0.8499   -0.2621   -1.5519 C   0  0  0  0  0  0  0  0  0  0  0  0
    0.6169   -0.1587   -1.0975 C   0  0  0  0  0  0  0  0  0  0  0  0
    1.2419    1.0681   -1.6164 N   0  0  0  0  0  0  0  0  0  0  0  0
    2.6090    1.1579   -1.3330 C   0  0  0  0  0  0  0  0  0  0  0  0
    3.1940    2.3668   -1.3248 N   0  0  0  0  0  0  0  0  0  0  0  0
    4.5145    2.4211   -1.0791 C   0  0  0  0  0  0  0  0  0  0  0  0
    5.2887    1.3156   -0.8382 C   0  0  0  0  0  0  0  0  0  0  0  0
    4.6288    0.1067   -0.8625 C   0  0  0  0  0  0  0  0  0  0  0  0
    5.3444   -1.2059   -0.6178 C   0  0  0  0  0  0  0  0  0  0  0  0
    6.4124   -1.4747   -1.6794 C   0  0  0  0  0  0  0  0  0  0  0  0
    5.9377   -1.2717    0.7906 C   0  0  0  0  0  0  0  0  0  0  0  0
    3.3023    0.0268   -1.1085 N   0  0  0  0  0  0  0  0  0  0  0  0
    0.5004    2.3033   -1.3186 C   0  0  0  0  0  0  0  0  0  0  0  0
   -0.9669    2.1863   -1.7649 C   0  0  0  0  0  0  0  0  0  0  0  0
   -3.1809   -0.9036    0.6789 C   0  0  0  0  0  0  0  0  0  0  0  0
   -3.0969   -2.2940    0.8777 C   0  0  0  0  0  0  0  0  0  0  0  0
   -2.5963   -2.8212    2.0701 C   0  0  0  0  0  0  0  0  0  0  0  0
   -2.1819   -1.9696    3.0904 C   0  0  0  0  0  0  0  0  0  0  0  0
   -2.2744   -0.5906    2.9229 C   0  0  0  0  0  0  0  0  0  0  0  0
   -2.7753   -0.0611    1.7314 C   0  0  0  0  0  0  0  0  0  0  0  0
  1  2  1  0
  2  3  1  0
  3  4  1  1
  3  5  1  0
  3 22  1  0
  5  7  1  0
  5  6  2  0
  7  8  1  0
  7 21  1  0
  8  9  1  0
  9 10  1  0
 10 11  1  0
 10 20  1  0
 11 19  1  0
 11 12  2  0
 12 13  1  0
 13 14  2  0
 14 15  1  0
 15 16  1  0
 15 19  2  0
 16 17  1  0
 16 18  1  0
 20 21  1  0
 22 27  1  0
 22 23  2  0
 23 24  1  0
 24 25  2  0
 25 26  1  0
 26 27  2  0
M  END
>  <Torsion_Angle>  (23) 
110

>  <MMFF94_Energy>  (23) 
61.20

>  <MMFF94_Relative_Energy>  (23) 
1.44

$$$$
Mol1_Deg115
     RDKit          3D

 27 29  0  0  0  0  0  0  0  0999 V2000
   -4.0570   -1.0525   -2.9256 C   0  0  0  0  0  0  0  0  0  0  0  0
   -3.5664   -1.3550   -1.6263 O   0  0  0  0  0  0  0  0  0  0  0  0
   -3.7408   -0.3243   -0.6326 C   0  0  2  0  0  0  0  0  0  0  0  0
   -5.2480   -0.0387   -0.4465 C   0  0  0  0  0  0  0  0  0  0  0  0
   -2.9898    0.9996   -1.0478 C   0  0  0  0  0  0  0  0  0  0  0  0
   -3.6292    2.0448   -1.2231 O   0  0  0  0  0  0  0  0  0  0  0  0
   -1.6058    0.9821   -1.2229 N   0  0  0  0  0  0  0  0  0  0  0  0
   -0.8057   -0.2360   -1.4170 C   0  0  0  0  0  0  0  0  0  0  0  0
    0.6383   -0.0878   -0.9047 C   0  0  0  0  0  0  0  0  0  0  0  0
    1.2617    1.1342   -1.4362 N   0  0  0  0  0  0  0  0  0  0  0  0
    2.6137    1.2597   -1.0988 C   0  0  0  0  0  0  0  0  0  0  0  0
    3.1739    2.4804   -1.0978 N   0  0  0  0  0  0  0  0  0  0  0  0
    4.4815    2.5683   -0.7989 C   0  0  0  0  0  0  0  0  0  0  0  0
    5.2667    1.4855   -0.4978 C   0  0  0  0  0  0  0  0  0  0  0  0
    4.6326    0.2628   -0.5187 C   0  0  0  0  0  0  0  0  0  0  0  0
    5.3634   -1.0281   -0.2119 C   0  0  0  0  0  0  0  0  0  0  0  0
    6.4825   -1.2985   -1.2192 C   0  0  0  0  0  0  0  0  0  0  0  0
    5.8953   -1.0486    1.2222 C   0  0  0  0  0  0  0  0  0  0  0  0
    3.3193    0.1493   -0.8168 N   0  0  0  0  0  0  0  0  0  0  0  0
    0.4850    2.3626   -1.2086 C   0  0  0  0  0  0  0  0  0  0  0  0
   -0.9581    2.2026   -1.7157 C   0  0  0  0  0  0  0  0  0  0  0  0
   -3.2395   -0.8518    0.7307 C   0  0  0  0  0  0  0  0  0  0  0  0
   -3.1322   -2.2327    0.9788 C   0  0  0  0  0  0  0  0  0  0  0  0
   -2.6905   -2.7095    2.2149 C   0  0  0  0  0  0  0  0  0  0  0  0
   -2.3597   -1.8162    3.2300 C   0  0  0  0  0  0  0  0  0  0  0  0
   -2.4769   -0.4460    3.0132 C   0  0  0  0  0  0  0  0  0  0  0  0
   -2.9187    0.0331    1.7778 C   0  0  0  0  0  0  0  0  0  0  0  0
  1  2  1  0
  2  3  1  0
  3  4  1  1
  3  5  1  0
  3 22  1  0
  5  7  1  0
  5  6  2  0
  7  8  1  0
  7 21  1  0
  8  9  1  0
  9 10  1  0
 10 11  1  0
 10 20  1  0
 11 19  1  0
 11 12  2  0
 12 13  1  0
 13 14  2  0
 14 15  1  0
 15 16  1  0
 15 19  2  0
 16 17  1  0
 16 18  1  0
 20 21  1  0
 22 27  1  0
 22 23  2  0
 23 24  1  0
 24 25  2  0
 25 26  1  0
 26 27  2  0
M  END
>  <Torsion_Angle>  (24) 
115

>  <MMFF94_Energy>  (24) 
61.06

>  <MMFF94_Relative_Energy>  (24) 
1.30

$$$$
Mol1_Deg120
     RDKit          3D

 27 29  0  0  0  0  0  0  0  0999 V2000
   -3.8987   -1.1392   -2.9086 C   0  0  0  0  0  0  0  0  0  0  0  0
   -3.4770   -1.3860   -1.5737 O   0  0  0  0  0  0  0  0  0  0  0  0
   -3.7343   -0.3272   -0.6292 C   0  0  2  0  0  0  0  0  0  0  0  0
   -5.2556   -0.0712   -0.5431 C   0  0  0  0  0  0  0  0  0  0  0  0
   -2.9871    1.0023   -1.0365 C   0  0  0  0  0  0  0  0  0  0  0  0
   -3.6324    2.0402   -1.2329 O   0  0  0  0  0  0  0  0  0  0  0  0
   -1.5982    1.0016   -1.1646 N   0  0  0  0  0  0  0  0  0  0  0  0
   -0.7660   -0.2055   -1.2741 C   0  0  0  0  0  0  0  0  0  0  0  0
    0.6455   -0.0105   -0.6914 C   0  0  0  0  0  0  0  0  0  0  0  0
    1.2731    1.2073   -1.2280 N   0  0  0  0  0  0  0  0  0  0  0  0
    2.6016    1.3720   -0.8213 C   0  0  0  0  0  0  0  0  0  0  0  0
    3.1375    2.6034   -0.8306 N   0  0  0  0  0  0  0  0  0  0  0  0
    4.4244    2.7285   -0.4625 C   0  0  0  0  0  0  0  0  0  0  0  0
    5.2118    1.6728   -0.0816 C   0  0  0  0  0  0  0  0  0  0  0  0
    4.6033    0.4371   -0.0964 C   0  0  0  0  0  0  0  0  0  0  0  0
    5.3398   -0.8275    0.2951 C   0  0  0  0  0  0  0  0  0  0  0  0
    6.5208   -1.1067   -0.6362 C   0  0  0  0  0  0  0  0  0  0  0  0
    5.7872   -0.7901    1.7573 C   0  0  0  0  0  0  0  0  0  0  0  0
    3.3114    0.2864   -0.4633 N   0  0  0  0  0  0  0  0  0  0  0  0
    0.4614    2.4255   -1.0817 C   0  0  0  0  0  0  0  0  0  0  0  0
   -0.9482    2.2193   -1.6612 C   0  0  0  0  0  0  0  0  0  0  0  0
   -3.3038   -0.7999    0.7781 C   0  0  0  0  0  0  0  0  0  0  0  0
   -3.1858   -2.1694    1.0785 C   0  0  0  0  0  0  0  0  0  0  0  0
   -2.8087   -2.5968    2.3535 C   0  0  0  0  0  0  0  0  0  0  0  0
   -2.5542   -1.6645    3.3554 C   0  0  0  0  0  0  0  0  0  0  0  0
   -2.6835   -0.3048    3.0861 C   0  0  0  0  0  0  0  0  0  0  0  0
   -3.0610    0.1248    1.8118 C   0  0  0  0  0  0  0  0  0  0  0  0
  1  2  1  0
  2  3  1  0
  3  4  1  1
  3  5  1  0
  3 22  1  0
  5  7  1  0
  5  6  2  0
  7  8  1  0
  7 21  1  0
  8  9  1  0
  9 10  1  0
 10 11  1  0
 10 20  1  0
 11 19  1  0
 11 12  2  0
 12 13  1  0
 13 14  2  0
 14 15  1  0
 15 16  1  0
 15 19  2  0
 16 17  1  0
 16 18  1  0
 20 21  1  0
 22 27  1  0
 22 23  2  0
 23 24  1  0
 24 25  2  0
 25 26  1  0
 26 27  2  0
M  END
>  <Torsion_Angle>  (25) 
120

>  <MMFF94_Energy>  (25) 
60.98

>  <MMFF94_Relative_Energy>  (25) 
1.22

$$$$
Mol1_Deg125
     RDKit          3D

 27 29  0  0  0  0  0  0  0  0999 V2000
   -3.7487   -1.2254   -2.8768 C   0  0  0  0  0  0  0  0  0  0  0  0
   -3.3909   -1.4130   -1.5139 O   0  0  0  0  0  0  0  0  0  0  0  0
   -3.7285   -0.3296   -0.6246 C   0  0  2  0  0  0  0  0  0  0  0  0
   -5.2569   -0.1052   -0.6375 C   0  0  0  0  0  0  0  0  0  0  0  0
   -2.9848    1.0049   -1.0253 C   0  0  0  0  0  0  0  0  0  0  0  0
   -3.6350    2.0356   -1.2429 O   0  0  0  0  0  0  0  0  0  0  0  0
   -1.5922    1.0206   -1.1105 N   0  0  0  0  0  0  0  0  0  0  0  0
   -0.7397   -0.1767   -1.1481 C   0  0  0  0  0  0  0  0  0  0  0  0
    0.6565    0.0628   -0.5447 C   0  0  0  0  0  0  0  0  0  0  0  0
    1.2775    1.2676   -1.1159 N   0  0  0  0  0  0  0  0  0  0  0  0
    2.5967    1.4659   -0.6946 C   0  0  0  0  0  0  0  0  0  0  0  0
    3.1165    2.7034   -0.7430 N   0  0  0  0  0  0  0  0  0  0  0  0
    4.3960    2.8599   -0.3616 C   0  0  0  0  0  0  0  0  0  0  0  0
    5.1914    1.8303    0.0704 C   0  0  0  0  0  0  0  0  0  0  0  0
    4.5994    0.5867    0.0943 C   0  0  0  0  0  0  0  0  0  0  0  0
    5.3468   -0.6520    0.5434 C   0  0  0  0  0  0  0  0  0  0  0  0
    6.5392   -0.9540   -0.3659 C   0  0  0  0  0  0  0  0  0  0  0  0
    5.7807   -0.5506    2.0067 C   0  0  0  0  0  0  0  0  0  0  0  0
    3.3151    0.4045   -0.2851 N   0  0  0  0  0  0  0  0  0  0  0  0
    0.4464    2.4780   -1.0286 C   0  0  0  0  0  0  0  0  0  0  0  0
   -0.9464    2.2307   -1.6313 C   0  0  0  0  0  0  0  0  0  0  0  0
   -3.3722   -0.7480    0.8206 C   0  0  0  0  0  0  0  0  0  0  0  0
   -3.2429   -2.1044    1.1719 C   0  0  0  0  0  0  0  0  0  0  0  0
   -2.9335   -2.4829    2.4802 C   0  0  0  0  0  0  0  0  0  0  0  0
   -2.7592   -1.5141    3.4645 C   0  0  0  0  0  0  0  0  0  0  0  0
   -2.9013   -0.1669    3.1439 C   0  0  0  0  0  0  0  0  0  0  0  0
   -3.2111    0.2138    1.8361 C   0  0  0  0  0  0  0  0  0  0  0  0
  1  2  1  0
  2  3  1  0
  3  4  1  1
  3  5  1  0
  3 22  1  0
  5  7  1  0
  5  6  2  0
  7  8  1  0
  7 21  1  0
  8  9  1  0
  9 10  1  0
 10 11  1  0
 10 20  1  0
 11 19  1  0
 11 12  2  0
 12 13  1  0
 13 14  2  0
 14 15  1  0
 15 16  1  0
 15 19  2  0
 16 17  1  0
 16 18  1  0
 20 21  1  0
 22 27  1  0
 22 23  2  0
 23 24  1  0
 24 25  2  0
 25 26  1  0
 26 27  2  0
M  END
>  <Torsion_Angle>  (26) 
125

>  <MMFF94_Energy>  (26) 
60.96

>  <MMFF94_Relative_Energy>  (26) 
1.20

$$$$
Mol1_Deg130
     RDKit          3D

 27 29  0  0  0  0  0  0  0  0999 V2000
   -3.5924   -1.3047   -2.8341 C   0  0  0  0  0  0  0  0  0  0  0  0
   -3.3092   -1.4363   -1.4473 O   0  0  0  0  0  0  0  0  0  0  0  0
   -3.7228   -0.3313   -0.6193 C   0  0  2  0  0  0  0  0  0  0  0  0
   -5.2515   -0.1407   -0.7320 C   0  0  0  0  0  0  0  0  0  0  0  0
   -2.9827    1.0081   -1.0133 C   0  0  0  0  0  0  0  0  0  0  0  0
   -3.6373    2.0311   -1.2532 O   0  0  0  0  0  0  0  0  0  0  0  0
   -1.5888    1.0410   -1.0521 N   0  0  0  0  0  0  0  0  0  0  0  0
   -0.7137   -0.1393   -1.0014 C   0  0  0  0  0  0  0  0  0  0  0  0
    0.6436    0.1496   -0.3338 C   0  0  0  0  0  0  0  0  0  0  0  0
    1.2716    1.3473   -0.9123 N   0  0  0  0  0  0  0  0  0  0  0  0
    2.5620    1.5871   -0.4280 C   0  0  0  0  0  0  0  0  0  0  0  0
    3.0608    2.8323   -0.4930 N   0  0  0  0  0  0  0  0  0  0  0  0
    4.3143    3.0282   -0.0488 C   0  0  0  0  0  0  0  0  0  0  0  0
    5.1037    2.0308    0.4627 C   0  0  0  0  0  0  0  0  0  0  0  0
    4.5343    0.7771    0.4995 C   0  0  0  0  0  0  0  0  0  0  0  0
    5.2786   -0.4296    1.0331 C   0  0  0  0  0  0  0  0  0  0  0  0
    6.5250   -0.7387    0.2020 C   0  0  0  0  0  0  0  0  0  0  0  0
    5.6287   -0.2681    2.5134 C   0  0  0  0  0  0  0  0  0  0  0  0
    3.2764    0.5555    0.0578 N   0  0  0  0  0  0  0  0  0  0  0  0
    0.4142    2.5424   -0.9105 C   0  0  0  0  0  0  0  0  0  0  0  0
   -0.9385    2.2462   -1.5791 C   0  0  0  0  0  0  0  0  0  0  0  0
   -3.4457   -0.6956    0.8579 C   0  0  0  0  0  0  0  0  0  0  0  0
   -3.3084   -2.0368    1.2611 C   0  0  0  0  0  0  0  0  0  0  0  0
   -3.0704   -2.3664    2.5973 C   0  0  0  0  0  0  0  0  0  0  0  0
   -2.9771   -1.3632    3.5578 C   0  0  0  0  0  0  0  0  0  0  0  0
   -3.1287   -0.0306    3.1850 C   0  0  0  0  0  0  0  0  0  0  0  0
   -3.3671    0.3012    1.8492 C   0  0  0  0  0  0  0  0  0  0  0  0
  1  2  1  0
  2  3  1  0
  3  4  1  1
  3  5  1  0
  3 22  1  0
  5  7  1  0
  5  6  2  0
  7  8  1  0
  7 21  1  0
  8  9  1  0
  9 10  1  0
 10 11  1  0
 10 20  1  0
 11 19  1  0
 11 12  2  0
 12 13  1  0
 13 14  2  0
 14 15  1  0
 15 16  1  0
 15 19  2  0
 16 17  1  0
 16 18  1  0
 20 21  1  0
 22 27  1  0
 22 23  2  0
 23 24  1  0
 24 25  2  0
 25 26  1  0
 26 27  2  0
M  END
>  <Torsion_Angle>  (27) 
130

>  <MMFF94_Energy>  (27) 
61.01

>  <MMFF94_Relative_Energy>  (27) 
1.25

$$$$
Mol1_Deg135
     RDKit          3D

 27 29  0  0  0  0  0  0  0  0999 V2000
   -3.4399   -1.3802   -2.7786 C   0  0  0  0  0  0  0  0  0  0  0  0
   -3.2321   -1.4555   -1.3743 O   0  0  0  0  0  0  0  0  0  0  0  0
   -3.7178   -0.3324   -0.6132 C   0  0  2  0  0  0  0  0  0  0  0  0
   -5.2398   -0.1775   -0.8244 C   0  0  0  0  0  0  0  0  0  0  0  0
   -2.9811    1.0114   -1.0010 C   0  0  0  0  0  0  0  0  0  0  0  0
   -3.6391    2.0266   -1.2639 O   0  0  0  0  0  0  0  0  0  0  0  0
   -1.5874    1.0619   -0.9943 N   0  0  0  0  0  0  0  0  0  0  0  0
   -0.6959   -0.0991   -0.8571 C   0  0  0  0  0  0  0  0  0  0  0  0
    0.6217    0.2391   -0.1347 C   0  0  0  0  0  0  0  0  0  0  0  0
    1.2562    1.4285   -0.7231 N   0  0  0  0  0  0  0  0  0  0  0  0
    2.5168    1.7093   -0.1851 C   0  0  0  0  0  0  0  0  0  0  0  0
    2.9959    2.9612   -0.2686 N   0  0  0  0  0  0  0  0  0  0  0  0
    4.2223    3.1962    0.2292 C   0  0  0  0  0  0  0  0  0  0  0  0
    5.0032    2.2321    0.8125 C   0  0  0  0  0  0  0  0  0  0  0  0
    4.4551    0.9694    0.8646 C   0  0  0  0  0  0  0  0  0  0  0  0
    5.1936   -0.2039    1.4750 C   0  0  0  0  0  0  0  0  0  0  0  0
    6.4843   -0.5167    0.7160 C   0  0  0  0  0  0  0  0  0  0  0  0
    5.4682    0.0142    2.9640 C   0  0  0  0  0  0  0  0  0  0  0  0
    3.2246    0.7087    0.3700 N   0  0  0  0  0  0  0  0  0  0  0  0
    0.3786    2.6060   -0.8040 C   0  0  0  0  0  0  0  0  0  0  0  0
   -0.9325    2.2612   -1.5293 C   0  0  0  0  0  0  0  0  0  0  0  0
   -3.5231   -0.6437    0.8897 C   0  0  0  0  0  0  0  0  0  0  0  0
   -3.3815   -1.9679    1.3444 C   0  0  0  0  0  0  0  0  0  0  0  0
   -3.2182   -2.2497    2.7026 C   0  0  0  0  0  0  0  0  0  0  0  0
   -3.2051   -1.2151    3.6336 C   0  0  0  0  0  0  0  0  0  0  0  0
   -3.3624    0.1012    3.2088 C   0  0  0  0  0  0  0  0  0  0  0  0
   -3.5262    0.3852    1.8509 C   0  0  0  0  0  0  0  0  0  0  0  0
  1  2  1  0
  2  3  1  0
  3  4  1  1
  3  5  1  0
  3 22  1  0
  5  7  1  0
  5  6  2  0
  7  8  1  0
  7 21  1  0
  8  9  1  0
  9 10  1  0
 10 11  1  0
 10 20  1  0
 11 19  1  0
 11 12  2  0
 12 13  1  0
 13 14  2  0
 14 15  1  0
 15 16  1  0
 15 19  2  0
 16 17  1  0
 16 18  1  0
 20 21  1  0
 22 27  1  0
 22 23  2  0
 23 24  1  0
 24 25  2  0
 25 26  1  0
 26 27  2  0
M  END
>  <Torsion_Angle>  (28) 
135

>  <MMFF94_Energy>  (28) 
61.12

>  <MMFF94_Relative_Energy>  (28) 
1.35

$$$$
Mol1_Deg140
     RDKit          3D

 27 29  0  0  0  0  0  0  0  0999 V2000
   -3.2324   -1.4752   -2.6992 C   0  0  0  0  0  0  0  0  0  0  0  0
   -3.1529   -1.4781   -1.2803 O   0  0  0  0  0  0  0  0  0  0  0  0
   -3.7203   -0.3310   -0.6199 C   0  0  2  0  0  0  0  0  0  0  0  0
   -5.2211   -0.2233   -0.9701 C   0  0  0  0  0  0  0  0  0  0  0  0
   -2.9827    1.0109   -1.0098 C   0  0  0  0  0  0  0  0  0  0  0  0
   -3.6381    2.0321   -1.2552 O   0  0  0  0  0  0  0  0  0  0  0  0
   -1.5908    1.0405   -1.0707 N   0  0  0  0  0  0  0  0  0  0  0  0
   -0.9287    2.3132   -1.3710 C   0  0  0  0  0  0  0  0  0  0  0  0
   -0.3771    2.9610   -0.0877 C   0  0  0  0  0  0  0  0  0  0  0  0
    0.4922    2.0101    0.6333 N   0  0  0  0  0  0  0  0  0  0  0  0
    1.1147    2.5637    1.7564 C   0  0  0  0  0  0  0  0  0  0  0  0
    1.5680    1.7439    2.7187 N   0  0  0  0  0  0  0  0  0  0  0  0
    2.1879    2.3003    3.7735 C   0  0  0  0  0  0  0  0  0  0  0  0
    2.3817    3.6500    3.9159 C   0  0  0  0  0  0  0  0  0  0  0  0
    1.8969    4.4350    2.8929 C   0  0  0  0  0  0  0  0  0  0  0  0
    2.0366    5.9434    2.9005 C   0  0  0  0  0  0  0  0  0  0  0  0
    3.5039    6.3749    2.8734 C   0  0  0  0  0  0  0  0  0  0  0  0
    1.2979    6.5741    4.0822 C   0  0  0  0  0  0  0  0  0  0  0  0
    1.2705    3.8986    1.8222 N   0  0  0  0  0  0  0  0  0  0  0  0
   -0.0954    0.6791    0.8845 C   0  0  0  0  0  0  0  0  0  0  0  0
   -0.6887    0.0854   -0.4122 C   0  0  0  0  0  0  0  0  0  0  0  0
   -3.6474   -0.5551    0.9083 C   0  0  0  0  0  0  0  0  0  0  0  0
   -3.4028   -1.8302    1.4499 C   0  0  0  0  0  0  0  0  0  0  0  0
   -3.3415   -2.0262    2.8315 C   0  0  0  0  0  0  0  0  0  0  0  0
   -3.5353   -0.9545    3.6984 C   0  0  0  0  0  0  0  0  0  0  0  0
   -3.7985    0.3124    3.1858 C   0  0  0  0  0  0  0  0  0  0  0  0
   -3.8605    0.5105    1.8046 C   0  0  0  0  0  0  0  0  0  0  0  0
  1  2  1  0
  2  3  1  0
  3  4  1  6
  3  5  1  0
  3 22  1  0
  5  7  1  0
  5  6  2  0
  7  8  1  0
  7 21  1  0
  8  9  1  0
  9 10  1  0
 10 11  1  0
 10 20  1  0
 11 19  1  0
 11 12  2  0
 12 13  1  0
 13 14  2  0
 14 15  1  0
 15 16  1  0
 15 19  2  0
 16 17  1  0
 16 18  1  0
 20 21  1  0
 22 27  1  0
 22 23  2  0
 23 24  1  0
 24 25  2  0
 25 26  1  0
 26 27  2  0
M  END
>  <Torsion_Angle>  (29) 
140

>  <MMFF94_Energy>  (29) 
60.87

>  <MMFF94_Relative_Energy>  (29) 
1.10

$$$$
Mol1_Deg145
     RDKit          3D

 27 29  0  0  0  0  0  0  0  0999 V2000
   -3.0883   -1.5408   -2.6155 C   0  0  0  0  0  0  0  0  0  0  0  0
   -3.0869   -1.4882   -1.1954 O   0  0  0  0  0  0  0  0  0  0  0  0
   -3.7160   -0.3315   -0.6128 C   0  0  2  0  0  0  0  0  0  0  0  0
   -5.1936   -0.2646   -1.0582 C   0  0  0  0  0  0  0  0  0  0  0  0
   -2.9818    1.0143   -0.9978 C   0  0  0  0  0  0  0  0  0  0  0  0
   -3.6394    2.0284   -1.2659 O   0  0  0  0  0  0  0  0  0  0  0  0
   -1.5881    1.0583   -1.0150 N   0  0  0  0  0  0  0  0  0  0  0  0
   -0.9357    2.3348   -1.3206 C   0  0  0  0  0  0  0  0  0  0  0  0
   -0.4806    3.0419   -0.0307 C   0  0  0  0  0  0  0  0  0  0  0  0
    0.3636    2.1389    0.7767 N   0  0  0  0  0  0  0  0  0  0  0  0
    0.9025    2.7468    1.9148 C   0  0  0  0  0  0  0  0  0  0  0  0
    1.3143    1.9726    2.9320 N   0  0  0  0  0  0  0  0  0  0  0  0
    1.8546    2.5807    4.0020 C   0  0  0  0  0  0  0  0  0  0  0  0
    2.0079    3.9390    4.1070 C   0  0  0  0  0  0  0  0  0  0  0  0
    1.5696    4.6755    3.0285 C   0  0  0  0  0  0  0  0  0  0  0  0
    1.6732    6.1863    2.9904 C   0  0  0  0  0  0  0  0  0  0  0  0
    3.1283    6.6549    3.0441 C   0  0  0  0  0  0  0  0  0  0  0  0
    0.8426    6.8379    4.0975 C   0  0  0  0  0  0  0  0  0  0  0  0
    1.0234    4.0867    1.9415 N   0  0  0  0  0  0  0  0  0  0  0  0
   -0.2085    0.8035    1.0402 C   0  0  0  0  0  0  0  0  0  0  0  0
   -0.7067    0.1498   -0.2680 C   0  0  0  0  0  0  0  0  0  0  0  0
   -3.7325   -0.5049    0.9242 C   0  0  0  0  0  0  0  0  0  0  0  0
   -3.4928   -1.7555    1.5223 C   0  0  0  0  0  0  0  0  0  0  0  0
   -3.5120   -1.9055    2.9109 C   0  0  0  0  0  0  0  0  0  0  0  0
   -3.7824   -0.8117    3.7282 C   0  0  0  0  0  0  0  0  0  0  0  0
   -4.0420    0.4313    3.1585 C   0  0  0  0  0  0  0  0  0  0  0  0
   -4.0238    0.5831    1.7702 C   0  0  0  0  0  0  0  0  0  0  0  0
  1  2  1  0
  2  3  1  0
  3  4  1  6
  3  5  1  0
  3 22  1  0
  5  7  1  0
  5  6  2  0
  7  8  1  0
  7 21  1  0
  8  9  1  0
  9 10  1  0
 10 11  1  0
 10 20  1  0
 11 19  1  0
 11 12  2  0
 12 13  1  0
 13 14  2  0
 14 15  1  0
 15 16  1  0
 15 19  2  0
 16 17  1  0
 16 18  1  0
 20 21  1  0
 22 27  1  0
 22 23  2  0
 23 24  1  0
 24 25  2  0
 25 26  1  0
 26 27  2  0
M  END
>  <Torsion_Angle>  (30) 
145

>  <MMFF94_Energy>  (30) 
60.98

>  <MMFF94_Relative_Energy>  (30) 
1.22

$$$$
Mol1_Deg150
     RDKit          3D

 27 29  0  0  0  0  0  0  0  0999 V2000
   -3.0083   -1.6221   -2.5240 C   0  0  0  0  0  0  0  0  0  0  0  0
   -3.0268   -1.4919   -1.1084 O   0  0  0  0  0  0  0  0  0  0  0  0
   -3.7132   -0.3321   -0.6022 C   0  0  2  0  0  0  0  0  0  0  0  0
   -5.1663   -0.2985   -1.1236 C   0  0  0  0  0  0  0  0  0  0  0  0
   -2.9819    1.0176   -0.9834 C   0  0  0  0  0  0  0  0  0  0  0  0
   -3.6394    2.0241   -1.2794 O   0  0  0  0  0  0  0  0  0  0  0  0
   -1.5922    1.0876   -0.9261 N   0  0  0  0  0  0  0  0  0  0  0  0
   -0.9363    2.3423   -1.3083 C   0  0  0  0  0  0  0  0  0  0  0  0
    0.4987    2.1528   -1.8323 C   0  0  0  0  0  0  0  0  0  0  0  0
    1.3107    1.3515   -0.9157 N   0  0  0  0  0  0  0  0  0  0  0  0
    2.6272    1.7067   -0.7165 C   0  0  0  0  0  0  0  0  0  0  0  0
    3.2784    1.2130    0.3487 N   0  0  0  0  0  0  0  0  0  0  0  0
    4.5670    1.5622    0.5085 C   0  0  0  0  0  0  0  0  0  0  0  0
    5.2436    2.3871   -0.3529 C   0  0  0  0  0  0  0  0  0  0  0  0
    4.5161    2.8549   -1.4242 C   0  0  0  0  0  0  0  0  0  0  0  0
    5.1537    3.7731   -2.4468 C   0  0  0  0  0  0  0  0  0  0  0  0
    4.4375    5.1242   -2.4842 C   0  0  0  0  0  0  0  0  0  0  0  0
    5.1597    3.1227   -3.8311 C   0  0  0  0  0  0  0  0  0  0  0  0
    3.2200    2.5191   -1.6083 N   0  0  0  0  0  0  0  0  0  0  0  0
    0.6370    0.5751    0.1215 C   0  0  0  0  0  0  0  0  0  0  0  0
   -0.7110    0.0367   -0.3938 C   0  0  0  0  0  0  0  0  0  0  0  0
   -3.8122   -0.4750    0.9359 C   0  0  0  0  0  0  0  0  0  0  0  0
   -3.6968   -1.7332    1.5567 C   0  0  0  0  0  0  0  0  0  0  0  0
   -3.8013   -1.8661    2.9433 C   0  0  0  0  0  0  0  0  0  0  0  0
   -4.0347   -0.7464    3.7363 C   0  0  0  0  0  0  0  0  0  0  0  0
   -4.1706    0.5055    3.1434 C   0  0  0  0  0  0  0  0  0  0  0  0
   -4.0663    0.6405    1.7567 C   0  0  0  0  0  0  0  0  0  0  0  0
  1  2  1  0
  2  3  1  0
  3  4  1  6
  3  5  1  0
  3 22  1  0
  5  7  1  0
  5  6  2  0
  7  8  1  0
  7 21  1  0
  8  9  1  0
  9 10  1  0
 10 11  1  0
 10 20  1  0
 11 19  1  0
 11 12  2  0
 12 13  1  0
 13 14  2  0
 14 15  1  0
 15 16  1  0
 15 19  2  0
 16 17  1  0
 16 18  1  0
 20 21  1  0
 22 27  1  0
 22 23  2  0
 23 24  1  0
 24 25  2  0
 25 26  1  0
 26 27  2  0
M  END
>  <Torsion_Angle>  (31) 
150

>  <MMFF94_Energy>  (31) 
64.23

>  <MMFF94_Relative_Energy>  (31) 
4.47

$$$$
Mol1_Deg155
     RDKit          3D

 27 29  0  0  0  0  0  0  0  0999 V2000
   -3.6742   -2.6765   -1.2976 C   0  0  0  0  0  0  0  0  0  0  0  0
   -2.9662   -1.4767   -1.0237 O   0  0  0  0  0  0  0  0  0  0  0  0
   -3.7270   -0.3353   -0.5813 C   0  0  2  0  0  0  0  0  0  0  0  0
   -5.1135   -0.2886   -1.2762 C   0  0  0  0  0  0  0  0  0  0  0  0
   -2.9761    1.0151   -0.9703 C   0  0  0  0  0  0  0  0  0  0  0  0
   -3.6363    2.0146   -1.2951 O   0  0  0  0  0  0  0  0  0  0  0  0
   -1.5892    1.1305   -0.8348 N   0  0  0  0  0  0  0  0  0  0  0  0
   -0.6798    0.0057   -0.5462 C   0  0  0  0  0  0  0  0  0  0  0  0
    0.6610    0.4458    0.0787 C   0  0  0  0  0  0  0  0  0  0  0  0
    1.2731    1.5416   -0.6831 N   0  0  0  0  0  0  0  0  0  0  0  0
    1.8933    1.1552   -1.8711 C   0  0  0  0  0  0  0  0  0  0  0  0
    2.3479   -0.1028   -1.9890 N   0  0  0  0  0  0  0  0  0  0  0  0
    2.9554   -0.4426   -3.1396 C   0  0  0  0  0  0  0  0  0  0  0  0
    3.1271    0.4190   -4.1921 C   0  0  0  0  0  0  0  0  0  0  0  0
    2.6345    1.6907   -4.0061 C   0  0  0  0  0  0  0  0  0  0  0  0
    2.7577    2.7338   -5.0977 C   0  0  0  0  0  0  0  0  0  0  0  0
    3.5919    3.9237   -4.6207 C   0  0  0  0  0  0  0  0  0  0  0  0
    1.3754    3.1921   -5.5659 C   0  0  0  0  0  0  0  0  0  0  0  0
    2.0247    2.0587   -2.8578 N   0  0  0  0  0  0  0  0  0  0  0  0
    0.3815    2.7046   -0.7978 C   0  0  0  0  0  0  0  0  0  0  0  0
   -0.9569    2.3136   -1.4505 C   0  0  0  0  0  0  0  0  0  0  0  0
   -3.9156   -0.3533    0.9553 C   0  0  0  0  0  0  0  0  0  0  0  0
   -4.6434    0.6697    1.5949 C   0  0  0  0  0  0  0  0  0  0  0  0
   -4.8213    0.6767    2.9808 C   0  0  0  0  0  0  0  0  0  0  0  0
   -4.2718   -0.3363    3.7596 C   0  0  0  0  0  0  0  0  0  0  0  0
   -3.5401   -1.3526    3.1537 C   0  0  0  0  0  0  0  0  0  0  0  0
   -3.3615   -1.3593    1.7673 C   0  0  0  0  0  0  0  0  0  0  0  0
  1  2  1  0
  2  3  1  0
  3  4  1  6
  3  5  1  0
  3 22  1  0
  5  7  1  0
  5  6  2  0
  7  8  1  0
  7 21  1  0
  8  9  1  0
  9 10  1  0
 10 11  1  0
 10 20  1  0
 11 19  1  0
 11 12  2  0
 12 13  1  0
 13 14  2  0
 14 15  1  0
 15 16  1  0
 15 19  2  0
 16 17  1  0
 16 18  1  0
 20 21  1  0
 22 27  1  0
 22 23  2  0
 23 24  1  0
 24 25  2  0
 25 26  1  0
 26 27  2  0
M  END
>  <Torsion_Angle>  (32) 
155

>  <MMFF94_Energy>  (32) 
65.25

>  <MMFF94_Relative_Energy>  (32) 
5.48

$$$$
Mol1_Deg160
     RDKit          3D

 27 29  0  0  0  0  0  0  0  0999 V2000
   -2.6902   -1.6990   -2.3029 C   0  0  0  0  0  0  0  0  0  0  0  0
   -2.9273   -1.4916   -0.9172 O   0  0  0  0  0  0  0  0  0  0  0  0
   -3.7081   -0.3293   -0.5867 C   0  0  2  0  0  0  0  0  0  0  0  0
   -5.0784   -0.3925   -1.2943 C   0  0  0  0  0  0  0  0  0  0  0  0
   -2.9825    1.0266   -0.9583 C   0  0  0  0  0  0  0  0  0  0  0  0
   -3.6401    2.0175   -1.3016 O   0  0  0  0  0  0  0  0  0  0  0  0
   -1.5930    1.1159   -0.8419 N   0  0  0  0  0  0  0  0  0  0  0  0
   -0.9624    2.3957   -1.1781 C   0  0  0  0  0  0  0  0  0  0  0  0
   -0.7798    3.2692    0.0771 C   0  0  0  0  0  0  0  0  0  0  0  0
   -0.0456    2.5204    1.1168 N   0  0  0  0  0  0  0  0  0  0  0  0
    0.2459    3.2833    2.2521 C   0  0  0  0  0  0  0  0  0  0  0  0
    0.5079    2.6532    3.4089 N   0  0  0  0  0  0  0  0  0  0  0  0
    0.8106    3.4092    4.4782 C   0  0  0  0  0  0  0  0  0  0  0  0
    0.8679    4.7786    4.4489 C   0  0  0  0  0  0  0  0  0  0  0  0
    0.5942    5.3627    3.2317 C   0  0  0  0  0  0  0  0  0  0  0  0
    0.6198    6.8646    3.0360 C   0  0  0  0  0  0  0  0  0  0  0  0
    2.0125    7.4443    3.2899 C   0  0  0  0  0  0  0  0  0  0  0  0
   -0.4342    7.5646    3.8958 C   0  0  0  0  0  0  0  0  0  0  0  0
    0.2880    4.6237    2.1424 N   0  0  0  0  0  0  0  0  0  0  0  0
   -0.5852    1.1830    1.4332 C   0  0  0  0  0  0  0  0  0  0  0  0
   -0.8074    0.3595    0.1444 C   0  0  0  0  0  0  0  0  0  0  0  0
   -3.9938   -0.3684    0.9352 C   0  0  0  0  0  0  0  0  0  0  0  0
   -4.4995    0.7619    1.6068 C   0  0  0  0  0  0  0  0  0  0  0  0
   -4.7578    0.7303    2.9794 C   0  0  0  0  0  0  0  0  0  0  0  0
   -4.5283   -0.4336    3.7066 C   0  0  0  0  0  0  0  0  0  0  0  0
   -4.0476   -1.5691    3.0614 C   0  0  0  0  0  0  0  0  0  0  0  0
   -3.7881   -1.5389    1.6890 C   0  0  0  0  0  0  0  0  0  0  0  0
  1  2  1  0
  2  3  1  0
  3  4  1  6
  3  5  1  0
  3 22  1  0
  5  7  1  0
  5  6  2  0
  7  8  1  0
  7 21  1  0
  8  9  1  0
  9 10  1  0
 10 11  1  0
 10 20  1  0
 11 19  1  0
 11 12  2  0
 12 13  1  0
 13 14  2  0
 14 15  1  0
 15 16  1  0
 15 19  2  0
 16 17  1  0
 16 18  1  0
 20 21  1  0
 22 27  1  0
 22 23  2  0
 23 24  1  0
 24 25  2  0
 25 26  1  0
 26 27  2  0
M  END
>  <Torsion_Angle>  (33) 
160

>  <MMFF94_Energy>  (33) 
61.67

>  <MMFF94_Relative_Energy>  (33) 
1.91

$$$$
Mol1_Deg165
     RDKit          3D

 27 29  0  0  0  0  0  0  0  0999 V2000
   -2.5802   -1.7253   -2.1914 C   0  0  0  0  0  0  0  0  0  0  0  0
   -2.8880   -1.4822   -0.8255 O   0  0  0  0  0  0  0  0  0  0  0  0
   -3.7078   -0.3267   -0.5709 C   0  0  2  0  0  0  0  0  0  0  0  0
   -5.0367   -0.4281   -1.3477 C   0  0  0  0  0  0  0  0  0  0  0  0
   -2.9847    1.0326   -0.9358 C   0  0  0  0  0  0  0  0  0  0  0  0
   -3.6379    2.0104   -1.3219 O   0  0  0  0  0  0  0  0  0  0  0  0
   -1.6016    1.1416   -0.7512 N   0  0  0  0  0  0  0  0  0  0  0  0
   -0.8931    0.4411    0.3314 C   0  0  0  0  0  0  0  0  0  0  0  0
    0.6143    0.2973    0.0583 C   0  0  0  0  0  0  0  0  0  0  0  0
    1.2098    1.5921   -0.3055 N   0  0  0  0  0  0  0  0  0  0  0  0
    2.5990    1.5440   -0.4591 C   0  0  0  0  0  0  0  0  0  0  0  0
    3.2039    2.4810   -1.2075 N   0  0  0  0  0  0  0  0  0  0  0  0
    4.5431    2.4297   -1.3118 C   0  0  0  0  0  0  0  0  0  0  0  0
    5.3170    1.4775   -0.7003 C   0  0  0  0  0  0  0  0  0  0  0  0
    4.6357    0.5458    0.0518 C   0  0  0  0  0  0  0  0  0  0  0  0
    5.3483   -0.5671    0.7924 C   0  0  0  0  0  0  0  0  0  0  0  0
    6.2956   -0.0192    1.8612 C   0  0  0  0  0  0  0  0  0  0  0  0
    6.0827   -1.5048   -0.1673 C   0  0  0  0  0  0  0  0  0  0  0  0
    3.2899    0.5769    0.1716 N   0  0  0  0  0  0  0  0  0  0  0  0
    0.5222    2.3023   -1.3944 C   0  0  0  0  0  0  0  0  0  0  0  0
   -0.9843    2.4228   -1.1106 C   0  0  0  0  0  0  0  0  0  0  0  0
   -4.0750   -0.3441    0.9345 C   0  0  0  0  0  0  0  0  0  0  0  0
   -3.9718   -1.5242    1.6952 C   0  0  0  0  0  0  0  0  0  0  0  0
   -4.3141   -1.5439    3.0496 C   0  0  0  0  0  0  0  0  0  0  0  0
   -4.7773   -0.3873    3.6694 C   0  0  0  0  0  0  0  0  0  0  0  0
   -4.9053    0.7873    2.9342 C   0  0  0  0  0  0  0  0  0  0  0  0
   -4.5635    0.8084    1.5795 C   0  0  0  0  0  0  0  0  0  0  0  0
  1  2  1  0
  2  3  1  0
  3  4  1  6
  3  5  1  0
  3 22  1  0
  5  7  1  0
  5  6  2  0
  7  8  1  0
  7 21  1  0
  8  9  1  0
  9 10  1  0
 10 11  1  0
 10 20  1  0
 11 19  1  0
 11 12  2  0
 12 13  1  0
 13 14  2  0
 14 15  1  0
 15 16  1  0
 15 19  2  0
 16 17  1  0
 16 18  1  0
 20 21  1  0
 22 27  1  0
 22 23  2  0
 23 24  1  0
 24 25  2  0
 25 26  1  0
 26 27  2  0
M  END
>  <Torsion_Angle>  (34) 
165

>  <MMFF94_Energy>  (34) 
62.76

>  <MMFF94_Relative_Energy>  (34) 
2.99

$$$$
Mol1_Deg170
     RDKit          3D

 27 29  0  0  0  0  0  0  0  0999 V2000
   -2.5233   -1.8069   -2.0616 C   0  0  0  0  0  0  0  0  0  0  0  0
   -2.8557   -1.4719   -0.7202 O   0  0  0  0  0  0  0  0  0  0  0  0
   -3.7084   -0.3242   -0.5652 C   0  0  2  0  0  0  0  0  0  0  0  0
   -4.9875   -0.4669   -1.4163 C   0  0  0  0  0  0  0  0  0  0  0  0
   -2.9851    1.0372   -0.9273 C   0  0  0  0  0  0  0  0  0  0  0  0
   -3.6379    2.0093   -1.3300 O   0  0  0  0  0  0  0  0  0  0  0  0
   -1.6195    1.1791   -0.6895 N   0  0  0  0  0  0  0  0  0  0  0  0
   -0.9745    2.4387   -1.0723 C   0  0  0  0  0  0  0  0  0  0  0  0
    0.5434    2.3102   -1.2922 C   0  0  0  0  0  0  0  0  0  0  0  0
    1.2042    1.6595   -0.1599 N   0  0  0  0  0  0  0  0  0  0  0  0
    2.4437    2.1197    0.2302 C   0  0  0  0  0  0  0  0  0  0  0  0
    2.9023    1.7936    1.4489 N   0  0  0  0  0  0  0  0  0  0  0  0
    4.1215    2.2409    1.7958 C   0  0  0  0  0  0  0  0  0  0  0  0
    4.9130    3.0034    0.9757 C   0  0  0  0  0  0  0  0  0  0  0  0
    4.3835    3.2989   -0.2615 C   0  0  0  0  0  0  0  0  0  0  0  0
    5.1358    4.1291   -1.2811 C   0  0  0  0  0  0  0  0  0  0  0  0
    6.4362    3.4503   -1.7148 C   0  0  0  0  0  0  0  0  0  0  0  0
    5.3971    5.5479   -0.7726 C   0  0  0  0  0  0  0  0  0  0  0  0
    3.1600    2.8614   -0.6331 N   0  0  0  0  0  0  0  0  0  0  0  0
    0.3796    0.9681    0.8273 C   0  0  0  0  0  0  0  0  0  0  0  0
   -0.8141    0.2729    0.1442 C   0  0  0  0  0  0  0  0  0  0  0  0
   -4.1693   -0.3020    0.9157 C   0  0  0  0  0  0  0  0  0  0  0  0
   -4.7031    0.8629    1.4996 C   0  0  0  0  0  0  0  0  0  0  0  0
   -5.1313    0.8736    2.8299 C   0  0  0  0  0  0  0  0  0  0  0  0
   -5.0461   -0.2813    3.6014 C   0  0  0  0  0  0  0  0  0  0  0  0
   -4.5393   -1.4501    3.0420 C   0  0  0  0  0  0  0  0  0  0  0  0
   -4.1109   -1.4621    1.7121 C   0  0  0  0  0  0  0  0  0  0  0  0
  1  2  1  0
  2  3  1  0
  3  4  1  6
  3  5  1  0
  3 22  1  0
  5  7  1  0
  5  6  2  0
  7  8  1  0
  7 21  1  0
  8  9  1  0
  9 10  1  0
 10 11  1  0
 10 20  1  0
 11 19  1  0
 11 12  2  0
 12 13  1  0
 13 14  2  0
 14 15  1  0
 15 16  1  0
 15 19  2  0
 16 17  1  0
 16 18  1  0
 20 21  1  0
 22 27  1  0
 22 23  2  0
 23 24  1  0
 24 25  2  0
 25 26  1  0
 26 27  2  0
M  END
>  <Torsion_Angle>  (35) 
170

>  <MMFF94_Energy>  (35) 
66.55

>  <MMFF94_Relative_Energy>  (35) 
6.79

$$$$
Mol1_Deg175
     RDKit          3D

 27 29  0  0  0  0  0  0  0  0999 V2000
   -2.3657   -1.7942   -1.9206 C   0  0  0  0  0  0  0  0  0  0  0  0
   -2.8297   -1.4557   -0.6207 O   0  0  0  0  0  0  0  0  0  0  0  0
   -3.7110   -0.3204   -0.5534 C   0  0  2  0  0  0  0  0  0  0  0  0
   -4.9261   -0.5155   -1.4823 C   0  0  0  0  0  0  0  0  0  0  0  0
   -2.9903    1.0428   -0.9096 C   0  0  0  0  0  0  0  0  0  0  0  0
   -3.6337    2.0053   -1.3461 O   0  0  0  0  0  0  0  0  0  0  0  0
   -1.6233    1.1803   -0.6401 N   0  0  0  0  0  0  0  0  0  0  0  0
   -1.0068    0.5881    0.5576 C   0  0  0  0  0  0  0  0  0  0  0  0
    0.5198    0.4490    0.4275 C   0  0  0  0  0  0  0  0  0  0  0  0
    1.1304    1.7215    0.0129 N   0  0  0  0  0  0  0  0  0  0  0  0
    2.5279    1.6873   -0.0199 C   0  0  0  0  0  0  0  0  0  0  0  0
    3.1750    0.7850    0.7356 N   0  0  0  0  0  0  0  0  0  0  0  0
    4.5190    0.7957    0.7091 C   0  0  0  0  0  0  0  0  0  0  0  0
    5.2572    1.6716   -0.0442 C   0  0  0  0  0  0  0  0  0  0  0  0
    4.5335    2.5707   -0.7963 C   0  0  0  0  0  0  0  0  0  0  0  0
    5.2029    3.6050   -1.6777 C   0  0  0  0  0  0  0  0  0  0  0  0
    6.0216    2.9517   -2.7925 C   0  0  0  0  0  0  0  0  0  0  0  0
    6.0579    4.5764   -0.8620 C   0  0  0  0  0  0  0  0  0  0  0  0
    3.1821    2.5791   -0.7862 N   0  0  0  0  0  0  0  0  0  0  0  0
    0.5300    2.3352   -1.1816 C   0  0  0  0  0  0  0  0  0  0  0  0
   -0.9972    2.4454   -1.0386 C   0  0  0  0  0  0  0  0  0  0  0  0
   -4.2627   -0.2634    0.8952 C   0  0  0  0  0  0  0  0  0  0  0  0
   -4.2055   -1.3882    1.7407 C   0  0  0  0  0  0  0  0  0  0  0  0
   -4.7126   -1.3431    3.0419 C   0  0  0  0  0  0  0  0  0  0  0  0
   -5.2980   -0.1762    3.5229 C   0  0  0  0  0  0  0  0  0  0  0  0
   -5.3831    0.9434    2.7011 C   0  0  0  0  0  0  0  0  0  0  0  0
   -4.8765    0.8994    1.3993 C   0  0  0  0  0  0  0  0  0  0  0  0
  1  2  1  0
  2  3  1  0
  3  4  1  6
  3  5  1  0
  3 22  1  0
  5  7  1  0
  5  6  2  0
  7  8  1  0
  7 21  1  0
  8  9  1  0
  9 10  1  0
 10 11  1  0
 10 20  1  0
 11 19  1  0
 11 12  2  0
 12 13  1  0
 13 14  2  0
 14 15  1  0
 15 16  1  0
 15 19  2  0
 16 17  1  0
 16 18  1  0
 20 21  1  0
 22 27  1  0
 22 23  2  0
 23 24  1  0
 24 25  2  0
 25 26  1  0
 26 27  2  0
M  END
>  <Torsion_Angle>  (36) 
175

>  <MMFF94_Energy>  (36) 
63.78

>  <MMFF94_Relative_Energy>  (36) 
4.01

$$$$
Mol1_Deg180
     RDKit          3D

 27 29  0  0  0  0  0  0  0  0999 V2000
   -2.3278   -1.8648   -1.7809 C   0  0  0  0  0  0  0  0  0  0  0  0
   -2.8137   -1.4376   -0.5147 O   0  0  0  0  0  0  0  0  0  0  0  0
   -3.7128   -0.3164   -0.5465 C   0  0  2  0  0  0  0  0  0  0  0  0
   -4.8697   -0.5527   -1.5386 C   0  0  0  0  0  0  0  0  0  0  0  0
   -2.9910    1.0490   -0.8993 C   0  0  0  0  0  0  0  0  0  0  0  0
   -3.6335    2.0034   -1.3563 O   0  0  0  0  0  0  0  0  0  0  0  0
   -1.6465    1.2264   -0.5767 N   0  0  0  0  0  0  0  0  0  0  0  0
   -1.0042    2.4853   -0.9661 C   0  0  0  0  0  0  0  0  0  0  0  0
    0.5316    2.4012   -1.0161 C   0  0  0  0  0  0  0  0  0  0  0  0
    1.0865    1.8511    0.2223 N   0  0  0  0  0  0  0  0  0  0  0  0
    2.2404    2.4135    0.7278 C   0  0  0  0  0  0  0  0  0  0  0  0
    2.5580    2.1959    2.0139 N   0  0  0  0  0  0  0  0  0  0  0  0
    3.6962    2.7420    2.4756 C   0  0  0  0  0  0  0  0  0  0  0  0
    4.5418    3.4998    1.7070 C   0  0  0  0  0  0  0  0  0  0  0  0
    4.1589    3.6803    0.3958 C   0  0  0  0  0  0  0  0  0  0  0  0
    4.9872    4.4908   -0.5798 C   0  0  0  0  0  0  0  0  0  0  0  0
    6.3715    3.8764   -0.7944 C   0  0  0  0  0  0  0  0  0  0  0  0
    5.0942    5.9547   -0.1490 C   0  0  0  0  0  0  0  0  0  0  0  0
    3.0190    3.1421   -0.0916 N   0  0  0  0  0  0  0  0  0  0  0  0
    0.1793    1.1902    1.1577 C   0  0  0  0  0  0  0  0  0  0  0  0
   -0.9088    0.4066    0.3978 C   0  0  0  0  0  0  0  0  0  0  0  0
   -4.3533   -0.2253    0.8652 C   0  0  0  0  0  0  0  0  0  0  0  0
   -4.3299   -1.3238    1.7469 C   0  0  0  0  0  0  0  0  0  0  0  0
   -4.9173   -1.2511    3.0128 C   0  0  0  0  0  0  0  0  0  0  0  0
   -5.5517   -0.0825    3.4217 C   0  0  0  0  0  0  0  0  0  0  0  0
   -5.6049    1.0108    2.5628 C   0  0  0  0  0  0  0  0  0  0  0  0
   -5.0175    0.9390    1.2964 C   0  0  0  0  0  0  0  0  0  0  0  0
  1  2  1  0
  2  3  1  0
  3  4  1  6
  3  5  1  0
  3 22  1  0
  5  7  1  0
  5  6  2  0
  7  8  1  0
  7 21  1  0
  8  9  1  0
  9 10  1  0
 10 11  1  0
 10 20  1  0
 11 19  1  0
 11 12  2  0
 12 13  1  0
 13 14  2  0
 14 15  1  0
 15 16  1  0
 15 19  2  0
 16 17  1  0
 16 18  1  0
 20 21  1  0
 22 27  1  0
 22 23  2  0
 23 24  1  0
 24 25  2  0
 25 26  1  0
 26 27  2  0
M  END
>  <Torsion_Angle>  (37) 
180

>  <MMFF94_Energy>  (37) 
67.58

>  <MMFF94_Relative_Energy>  (37) 
7.82

$$$$
Mol1_Deg185
     RDKit          3D

 27 29  0  0  0  0  0  0  0  0999 V2000
   -2.2455   -1.8892   -1.6287 C   0  0  0  0  0  0  0  0  0  0  0  0
   -2.8046   -1.4151   -0.4101 O   0  0  0  0  0  0  0  0  0  0  0  0
   -3.7162   -0.3117   -0.5385 C   0  0  2  0  0  0  0  0  0  0  0  0
   -4.8030   -0.5965   -1.5948 C   0  0  0  0  0  0  0  0  0  0  0  0
   -2.9946    1.0551   -0.8871 C   0  0  0  0  0  0  0  0  0  0  0  0
   -3.6310    2.0015   -1.3684 O   0  0  0  0  0  0  0  0  0  0  0  0
   -1.6609    1.2484   -0.5292 N   0  0  0  0  0  0  0  0  0  0  0  0
   -1.0181    2.5044   -0.9270 C   0  0  0  0  0  0  0  0  0  0  0  0
    0.5190    2.4388   -0.9108 C   0  0  0  0  0  0  0  0  0  0  0  0
    1.0277    1.9301    0.3647 N   0  0  0  0  0  0  0  0  0  0  0  0
    2.1578    2.5167    0.8960 C   0  0  0  0  0  0  0  0  0  0  0  0
    2.4291    2.3413    2.1991 N   0  0  0  0  0  0  0  0  0  0  0  0
    3.5457    2.9108    2.6858 C   0  0  0  0  0  0  0  0  0  0  0  0
    4.4138    3.6526    1.9266 C   0  0  0  0  0  0  0  0  0  0  0  0
    4.0762    3.7894    0.5989 C   0  0  0  0  0  0  0  0  0  0  0  0
    4.9577    4.5842   -0.3426 C   0  0  0  0  0  0  0  0  0  0  0  0
    4.1893    5.7634   -0.9417 C   0  0  0  0  0  0  0  0  0  0  0  0
    5.5207    3.6862   -1.4452 C   0  0  0  0  0  0  0  0  0  0  0  0
    2.9607    3.2262    0.0841 N   0  0  0  0  0  0  0  0  0  0  0  0
    0.0867    1.2962    1.2853 C   0  0  0  0  0  0  0  0  0  0  0  0
   -0.9619    0.4745    0.5095 C   0  0  0  0  0  0  0  0  0  0  0  0
   -4.4459   -0.1872    0.8277 C   0  0  0  0  0  0  0  0  0  0  0  0
   -4.4334   -1.2436    1.7599 C   0  0  0  0  0  0  0  0  0  0  0  0
   -5.1002   -1.1404    2.9838 C   0  0  0  0  0  0  0  0  0  0  0  0
   -5.8043    0.0169    3.2997 C   0  0  0  0  0  0  0  0  0  0  0  0
   -5.8476    1.0681    2.3896 C   0  0  0  0  0  0  0  0  0  0  0  0
   -5.1810    0.9656    1.1652 C   0  0  0  0  0  0  0  0  0  0  0  0
  1  2  1  0
  2  3  1  0
  3  4  1  6
  3  5  1  0
  3 22  1  0
  5  7  1  0
  5  6  2  0
  7  8  1  0
  7 21  1  0
  8  9  1  0
  9 10  1  0
 10 11  1  0
 10 20  1  0
 11 19  1  0
 11 12  2  0
 12 13  1  0
 13 14  2  0
 14 15  1  0
 15 16  1  0
 15 19  2  0
 16 17  1  0
 16 18  1  0
 20 21  1  0
 22 27  1  0
 22 23  2  0
 23 24  1  0
 24 25  2  0
 25 26  1  0
 26 27  2  0
M  END
>  <Torsion_Angle>  (38) 
185

>  <MMFF94_Energy>  (38) 
67.24

>  <MMFF94_Relative_Energy>  (38) 
7.48

$$$$
Mol1_Deg190
     RDKit          3D

 27 29  0  0  0  0  0  0  0  0999 V2000
   -2.2072   -1.0883    1.0946 C   0  0  0  0  0  0  0  0  0  0  0  0
   -2.8139   -1.3597   -0.1651 O   0  0  0  0  0  0  0  0  0  0  0  0
   -3.7053   -0.3388   -0.6457 C   0  0  2  0  0  0  0  0  0  0  0  0
   -4.2842   -0.8807   -1.9756 C   0  0  0  0  0  0  0  0  0  0  0  0
   -2.9928    1.0088   -1.0736 C   0  0  0  0  0  0  0  0  0  0  0  0
   -3.6388    2.0555   -1.2085 O   0  0  0  0  0  0  0  0  0  0  0  0
   -1.6184    1.0124   -1.3515 N   0  0  0  0  0  0  0  0  0  0  0  0
   -0.9520   -0.0914   -2.0759 C   0  0  0  0  0  0  0  0  0  0  0  0
    0.5769   -0.0844   -1.8726 C   0  0  0  0  0  0  0  0  0  0  0  0
    1.1413    1.2374   -2.1879 N   0  0  0  0  0  0  0  0  0  0  0  0
    1.2757    1.5046   -3.5518 C   0  0  0  0  0  0  0  0  0  0  0  0
    1.3858    0.4769   -4.4088 N   0  0  0  0  0  0  0  0  0  0  0  0
    1.5268    0.7645   -5.7151 C   0  0  0  0  0  0  0  0  0  0  0  0
    1.5546    2.0412   -6.2138 C   0  0  0  0  0  0  0  0  0  0  0  0
    1.4304    3.0464   -5.2819 C   0  0  0  0  0  0  0  0  0  0  0  0
    1.4419    4.5001   -5.7081 C   0  0  0  0  0  0  0  0  0  0  0  0
    0.1258    5.1845   -5.3341 C   0  0  0  0  0  0  0  0  0  0  0  0
    2.6318    5.2368   -5.0914 C   0  0  0  0  0  0  0  0  0  0  0  0
    1.2939    2.7839   -3.9632 N   0  0  0  0  0  0  0  0  0  0  0  0
    0.5205    2.3211   -1.4083 C   0  0  0  0  0  0  0  0  0  0  0  0
   -1.0091    2.3337   -1.5978 C   0  0  0  0  0  0  0  0  0  0  0  0
   -4.8512   -0.1694    0.3821 C   0  0  0  0  0  0  0  0  0  0  0  0
   -4.9867    0.9782    1.1840 C   0  0  0  0  0  0  0  0  0  0  0  0
   -6.0100    1.0860    2.1317 C   0  0  0  0  0  0  0  0  0  0  0  0
   -6.9095    0.0411    2.3148 C   0  0  0  0  0  0  0  0  0  0  0  0
   -6.7808   -1.1177    1.5578 C   0  0  0  0  0  0  0  0  0  0  0  0
   -5.7596   -1.2245    0.6096 C   0  0  0  0  0  0  0  0  0  0  0  0
  1  2  1  0
  2  3  1  0
  3  4  1  6
  3  5  1  0
  3 22  1  0
  5  7  1  0
  5  6  2  0
  7  8  1  0
  7 21  1  0
  8  9  1  0
  9 10  1  0
 10 11  1  0
 10 20  1  0
 11 19  1  0
 11 12  2  0
 12 13  1  0
 13 14  2  0
 14 15  1  0
 15 16  1  0
 15 19  2  0
 16 17  1  0
 16 18  1  0
 20 21  1  0
 22 27  1  0
 22 23  2  0
 23 24  1  0
 24 25  2  0
 25 26  1  0
 26 27  2  0
M  END
>  <Torsion_Angle>  (39) 
190

>  <MMFF94_Energy>  (39) 
66.97

>  <MMFF94_Relative_Energy>  (39) 
7.21

$$$$
Mol1_Deg195
     RDKit          3D

 27 29  0  0  0  0  0  0  0  0999 V2000
   -2.2919   -1.0168    1.2086 C   0  0  0  0  0  0  0  0  0  0  0  0
   -2.8260   -1.3260   -0.0751 O   0  0  0  0  0  0  0  0  0  0  0  0
   -3.7075   -0.3334   -0.6278 C   0  0  2  0  0  0  0  0  0  0  0  0
   -4.2152   -0.9151   -1.9689 C   0  0  0  0  0  0  0  0  0  0  0  0
   -2.9904    1.0147   -1.0475 C   0  0  0  0  0  0  0  0  0  0  0  0
   -3.6402    2.0508   -1.2335 O   0  0  0  0  0  0  0  0  0  0  0  0
   -1.6049    1.0356   -1.2342 N   0  0  0  0  0  0  0  0  0  0  0  0
   -0.9699    2.3395   -1.4580 C   0  0  0  0  0  0  0  0  0  0  0  0
   -0.8065    2.6375   -2.9589 C   0  0  0  0  0  0  0  0  0  0  0  0
   -0.0856    1.5307   -3.6172 N   0  0  0  0  0  0  0  0  0  0  0  0
    0.1990    1.7756   -4.9643 C   0  0  0  0  0  0  0  0  0  0  0  0
    0.2961    3.0457   -5.3891 N   0  0  0  0  0  0  0  0  0  0  0  0
    0.5962    3.2518   -6.6835 C   0  0  0  0  0  0  0  0  0  0  0  0
    0.8084    2.2406   -7.5847 C   0  0  0  0  0  0  0  0  0  0  0  0
    0.6974    0.9635   -7.0831 C   0  0  0  0  0  0  0  0  0  0  0  0
    0.9128   -0.2382   -7.9801 C   0  0  0  0  0  0  0  0  0  0  0  0
   -0.3518   -1.0957   -8.0517 C   0  0  0  0  0  0  0  0  0  0  0  0
    2.1048   -1.0673   -7.4992 C   0  0  0  0  0  0  0  0  0  0  0  0
    0.3978    0.7291   -5.7861 N   0  0  0  0  0  0  0  0  0  0  0  0
   -0.6357    0.1863   -3.3686 C   0  0  0  0  0  0  0  0  0  0  0  0
   -0.8456   -0.0596   -1.8560 C   0  0  0  0  0  0  0  0  0  0  0  0
   -4.9057   -0.1559    0.3385 C   0  0  0  0  0  0  0  0  0  0  0  0
   -5.0940    1.0068    1.1072 C   0  0  0  0  0  0  0  0  0  0  0  0
   -6.1647    1.1228    2.0000 C   0  0  0  0  0  0  0  0  0  0  0  0
   -7.0605    0.0713    2.1616 C   0  0  0  0  0  0  0  0  0  0  0  0
   -6.8807   -1.1022    1.4384 C   0  0  0  0  0  0  0  0  0  0  0  0
   -5.8121   -1.2172    0.5449 C   0  0  0  0  0  0  0  0  0  0  0  0
  1  2  1  0
  2  3  1  0
  3  4  1  6
  3  5  1  0
  3 22  1  0
  5  7  1  0
  5  6  2  0
  7  8  1  0
  7 21  1  0
  8  9  1  0
  9 10  1  0
 10 11  1  0
 10 20  1  0
 11 19  1  0
 11 12  2  0
 12 13  1  0
 13 14  2  0
 14 15  1  0
 15 16  1  0
 15 19  2  0
 16 17  1  0
 16 18  1  0
 20 21  1  0
 22 27  1  0
 22 23  2  0
 23 24  1  0
 24 25  2  0
 25 26  1  0
 26 27  2  0
M  END
>  <Torsion_Angle>  (40) 
195

>  <MMFF94_Energy>  (40) 
67.17

>  <MMFF94_Relative_Energy>  (40) 
7.41

$$$$
Mol1_Deg200
     RDKit          3D

 27 29  0  0  0  0  0  0  0  0999 V2000
   -2.3873   -0.8827    1.3203 C   0  0  0  0  0  0  0  0  0  0  0  0
   -2.8481   -1.2789    0.0324 O   0  0  0  0  0  0  0  0  0  0  0  0
   -3.7086   -0.3341   -0.6281 C   0  0  2  0  0  0  0  0  0  0  0  0
   -4.1058   -0.9829   -1.9766 C   0  0  0  0  0  0  0  0  0  0  0  0
   -2.9902    1.0127   -1.0516 C   0  0  0  0  0  0  0  0  0  0  0  0
   -3.6395    2.0507   -1.2307 O   0  0  0  0  0  0  0  0  0  0  0  0
   -1.6036    1.0312   -1.2595 N   0  0  0  0  0  0  0  0  0  0  0  0
   -0.8454   -0.1119   -1.8126 C   0  0  0  0  0  0  0  0  0  0  0  0
    0.6576   -0.0374   -1.4744 C   0  0  0  0  0  0  0  0  0  0  0  0
    1.2167    1.2685   -1.8565 N   0  0  0  0  0  0  0  0  0  0  0  0
    1.4678    1.4202   -3.2215 C   0  0  0  0  0  0  0  0  0  0  0  0
    1.6784    0.3258   -3.9704 N   0  0  0  0  0  0  0  0  0  0  0  0
    1.9310    0.5031   -5.2795 C   0  0  0  0  0  0  0  0  0  0  0  0
    1.9748    1.7320   -5.8857 C   0  0  0  0  0  0  0  0  0  0  0  0
    1.7435    2.8100   -5.0618 C   0  0  0  0  0  0  0  0  0  0  0  0
    1.7607    4.2209   -5.6132 C   0  0  0  0  0  0  0  0  0  0  0  0
    0.4012    4.8950   -5.4191 C   0  0  0  0  0  0  0  0  0  0  0  0
    2.8731    5.0442   -4.9622 C   0  0  0  0  0  0  0  0  0  0  0  0
    1.4936    2.6588   -3.7423 N   0  0  0  0  0  0  0  0  0  0  0  0
    0.5033    2.3954   -1.2341 C   0  0  0  0  0  0  0  0  0  0  0  0
   -1.0027    2.3460   -1.5589 C   0  0  0  0  0  0  0  0  0  0  0  0
   -4.9754   -0.1543    0.2476 C   0  0  0  0  0  0  0  0  0  0  0  0
   -5.2252    1.0145    0.9896 C   0  0  0  0  0  0  0  0  0  0  0  0
   -6.3568    1.1329    1.8037 C   0  0  0  0  0  0  0  0  0  0  0  0
   -7.2550    0.0770    1.9138 C   0  0  0  0  0  0  0  0  0  0  0  0
   -7.0166   -1.1030    1.2191 C   0  0  0  0  0  0  0  0  0  0  0  0
   -5.8867   -1.2200    0.4042 C   0  0  0  0  0  0  0  0  0  0  0  0
  1  2  1  0
  2  3  1  0
  3  4  1  6
  3  5  1  0
  3 22  1  0
  5  7  1  0
  5  6  2  0
  7  8  1  0
  7 21  1  0
  8  9  1  0
  9 10  1  0
 10 11  1  0
 10 20  1  0
 11 19  1  0
 11 12  2  0
 12 13  1  0
 13 14  2  0
 14 15  1  0
 15 16  1  0
 15 19  2  0
 16 17  1  0
 16 18  1  0
 20 21  1  0
 22 27  1  0
 22 23  2  0
 23 24  1  0
 24 25  2  0
 25 26  1  0
 26 27  2  0
M  END
>  <Torsion_Angle>  (41) 
200

>  <MMFF94_Energy>  (41) 
66.72

>  <MMFF94_Relative_Energy>  (41) 
6.96

$$$$
Mol1_Deg205
     RDKit          3D

 27 29  0  0  0  0  0  0  0  0999 V2000
   -2.4920   -0.7784    1.4196 C   0  0  0  0  0  0  0  0  0  0  0  0
   -2.8769   -1.2342    0.1267 O   0  0  0  0  0  0  0  0  0  0  0  0
   -3.7116   -0.3311   -0.6202 C   0  0  2  0  0  0  0  0  0  0  0  0
   -4.0165   -1.0312   -1.9670 C   0  0  0  0  0  0  0  0  0  0  0  0
   -2.9896    1.0151   -1.0404 C   0  0  0  0  0  0  0  0  0  0  0  0
   -3.6392    2.0487   -1.2419 O   0  0  0  0  0  0  0  0  0  0  0  0
   -1.5981    1.0414   -1.2116 N   0  0  0  0  0  0  0  0  0  0  0  0
   -0.7989   -0.1149   -1.6722 C   0  0  0  0  0  0  0  0  0  0  0  0
    0.6847   -0.0027   -1.2655 C   0  0  0  0  0  0  0  0  0  0  0  0
    1.2453    1.2922   -1.6806 N   0  0  0  0  0  0  0  0  0  0  0  0
    1.5589    1.3855   -3.0378 C   0  0  0  0  0  0  0  0  0  0  0  0
    1.8213    0.2617   -3.7241 N   0  0  0  0  0  0  0  0  0  0  0  0
    2.1332    0.3830   -5.0268 C   0  0  0  0  0  0  0  0  0  0  0  0
    2.1873    1.5834   -5.6870 C   0  0  0  0  0  0  0  0  0  0  0  0
    1.9011    2.6939   -4.9260 C   0  0  0  0  0  0  0  0  0  0  0  0
    1.9214    4.0779   -5.5418 C   0  0  0  0  0  0  0  0  0  0  0  0
    0.5389    4.7273   -5.4581 C   0  0  0  0  0  0  0  0  0  0  0  0
    2.9762    4.9569   -4.8681 C   0  0  0  0  0  0  0  0  0  0  0  0
    1.5906    2.5992   -3.6142 N   0  0  0  0  0  0  0  0  0  0  0  0
    0.4895    2.4355   -1.1444 C   0  0  0  0  0  0  0  0  0  0  0  0
   -0.9986    2.3509   -1.5375 C   0  0  0  0  0  0  0  0  0  0  0  0
   -5.0322   -0.1504    0.1740 C   0  0  0  0  0  0  0  0  0  0  0  0
   -5.3372    1.0269    0.8815 C   0  0  0  0  0  0  0  0  0  0  0  0
   -6.5168    1.1469    1.6242 C   0  0  0  0  0  0  0  0  0  0  0  0
   -7.4104    0.0841    1.6975 C   0  0  0  0  0  0  0  0  0  0  0  0
   -7.1195   -1.1042    1.0379 C   0  0  0  0  0  0  0  0  0  0  0  0
   -5.9415   -1.2226    0.2943 C   0  0  0  0  0  0  0  0  0  0  0  0
  1  2  1  0
  2  3  1  0
  3  4  1  6
  3  5  1  0
  3 22  1  0
  5  7  1  0
  5  6  2  0
  7  8  1  0
  7 21  1  0
  8  9  1  0
  9 10  1  0
 10 11  1  0
 10 20  1  0
 11 19  1  0
 11 12  2  0
 12 13  1  0
 13 14  2  0
 14 15  1  0
 15 16  1  0
 15 19  2  0
 16 17  1  0
 16 18  1  0
 20 21  1  0
 22 27  1  0
 22 23  2  0
 23 24  1  0
 24 25  2  0
 25 26  1  0
 26 27  2  0
M  END
>  <Torsion_Angle>  (42) 
205

>  <MMFF94_Energy>  (42) 
66.69

>  <MMFF94_Relative_Energy>  (42) 
6.93

$$$$
Mol1_Deg210
     RDKit          3D

 27 29  0  0  0  0  0  0  0  0999 V2000
   -3.3620   -2.4672    0.4914 C   0  0  0  0  0  0  0  0  0  0  0  0
   -2.9114   -1.1421    0.2374 O   0  0  0  0  0  0  0  0  0  0  0  0
   -3.7277   -0.3464   -0.6463 C   0  0  2  0  0  0  0  0  0  0  0  0
   -3.9713   -1.0914   -1.9775 C   0  0  0  0  0  0  0  0  0  0  0  0
   -2.9864    0.9949   -1.0633 C   0  0  0  0  0  0  0  0  0  0  0  0
   -3.6311    2.0436   -1.2061 O   0  0  0  0  0  0  0  0  0  0  0  0
   -1.6284    0.9844   -1.3969 N   0  0  0  0  0  0  0  0  0  0  0  0
   -0.6795   -0.1107   -1.1311 C   0  0  0  0  0  0  0  0  0  0  0  0
    0.0845    0.1597    0.1851 C   0  0  0  0  0  0  0  0  0  0  0  0
    0.7490    1.4815    0.1271 N   0  0  0  0  0  0  0  0  0  0  0  0
    1.9459    1.4975   -0.5932 C   0  0  0  0  0  0  0  0  0  0  0  0
    2.6463    0.3588   -0.7198 N   0  0  0  0  0  0  0  0  0  0  0  0
    3.8044    0.4080   -1.4019 C   0  0  0  0  0  0  0  0  0  0  0  0
    4.2982    1.5485   -1.9803 C   0  0  0  0  0  0  0  0  0  0  0  0
    3.5270    2.6771   -1.8213 C   0  0  0  0  0  0  0  0  0  0  0  0
    3.9621    4.0003   -2.4169 C   0  0  0  0  0  0  0  0  0  0  0  0
    4.1899    5.0408   -1.3194 C   0  0  0  0  0  0  0  0  0  0  0  0
    2.9348    4.4999   -3.4344 C   0  0  0  0  0  0  0  0  0  0  0  0
    2.3625    2.6545   -1.1360 N   0  0  0  0  0  0  0  0  0  0  0  0
   -0.1785    2.5899   -0.1988 C   0  0  0  0  0  0  0  0  0  0  0  0
   -0.9504    2.2900   -1.5057 C   0  0  0  0  0  0  0  0  0  0  0  0
   -5.0165    0.0188    0.1213 C   0  0  0  0  0  0  0  0  0  0  0  0
   -6.2987   -0.0682   -0.4466 C   0  0  0  0  0  0  0  0  0  0  0  0
   -7.4357    0.2748    0.2917 C   0  0  0  0  0  0  0  0  0  0  0  0
   -7.3130    0.7170    1.6062 C   0  0  0  0  0  0  0  0  0  0  0  0
   -6.0526    0.8237    2.1852 C   0  0  0  0  0  0  0  0  0  0  0  0
   -4.9163    0.4819    1.4496 C   0  0  0  0  0  0  0  0  0  0  0  0
  1  2  1  0
  2  3  1  0
  3  4  1  6
  3  5  1  0
  3 22  1  0
  5  7  1  0
  5  6  2  0
  7  8  1  0
  7 21  1  0
  8  9  1  0
  9 10  1  0
 10 11  1  0
 10 20  1  0
 11 19  1  0
 11 12  2  0
 12 13  1  0
 13 14  2  0
 14 15  1  0
 15 16  1  0
 15 19  2  0
 16 17  1  0
 16 18  1  0
 20 21  1  0
 22 27  1  0
 22 23  2  0
 23 24  1  0
 24 25  2  0
 25 26  1  0
 26 27  2  0
M  END
>  <Torsion_Angle>  (43) 
210

>  <MMFF94_Energy>  (43) 
66.60

>  <MMFF94_Relative_Energy>  (43) 
6.83

$$$$
Mol1_Deg215
     RDKit          3D

 27 29  0  0  0  0  0  0  0  0999 V2000
   -3.3916   -2.4172    0.5901 C   0  0  0  0  0  0  0  0  0  0  0  0
   -2.9568   -1.0895    0.3224 O   0  0  0  0  0  0  0  0  0  0  0  0
   -3.7302   -0.3453   -0.6417 C   0  0  2  0  0  0  0  0  0  0  0  0
   -3.8756   -1.1401   -1.9584 C   0  0  0  0  0  0  0  0  0  0  0  0
   -2.9863    0.9967   -1.0516 C   0  0  0  0  0  0  0  0  0  0  0  0
   -3.6308    2.0423   -1.2154 O   0  0  0  0  0  0  0  0  0  0  0  0
   -1.6185    0.9886   -1.3466 N   0  0  0  0  0  0  0  0  0  0  0  0
   -0.6686   -0.0815   -0.9947 C   0  0  0  0  0  0  0  0  0  0  0  0
    0.0381    0.2557    0.3383 C   0  0  0  0  0  0  0  0  0  0  0  0
    0.6894    1.5821    0.2499 N   0  0  0  0  0  0  0  0  0  0  0  0
    1.9139    1.5831   -0.4227 C   0  0  0  0  0  0  0  0  0  0  0  0
    2.6292    0.4479   -0.4766 N   0  0  0  0  0  0  0  0  0  0  0  0
    3.8128    0.4826   -1.1144 C   0  0  0  0  0  0  0  0  0  0  0  0
    4.3184    1.6048   -1.7181 C   0  0  0  0  0  0  0  0  0  0  0  0
    3.5308    2.7302   -1.6346 C   0  0  0  0  0  0  0  0  0  0  0  0
    3.9787    4.0342   -2.2623 C   0  0  0  0  0  0  0  0  0  0  0  0
    4.1849    5.1074   -1.1924 C   0  0  0  0  0  0  0  0  0  0  0  0
    2.9734    4.5033   -3.3158 C   0  0  0  0  0  0  0  0  0  0  0  0
    2.3409    2.7223   -0.9942 N   0  0  0  0  0  0  0  0  0  0  0  0
   -0.2372    2.6632   -0.1596 C   0  0  0  0  0  0  0  0  0  0  0  0
   -0.9512    2.2974   -1.4824 C   0  0  0  0  0  0  0  0  0  0  0  0
   -5.0746    0.0153    0.0282 C   0  0  0  0  0  0  0  0  0  0  0  0
   -6.3142   -0.1126   -0.6210 C   0  0  0  0  0  0  0  0  0  0  0  0
   -7.5043    0.2268    0.0303 C   0  0  0  0  0  0  0  0  0  0  0  0
   -7.4782    0.7063    1.3372 C   0  0  0  0  0  0  0  0  0  0  0  0
   -6.2616    0.8544    1.9952 C   0  0  0  0  0  0  0  0  0  0  0  0
   -5.0725    0.5164    1.3465 C   0  0  0  0  0  0  0  0  0  0  0  0
  1  2  1  0
  2  3  1  0
  3  4  1  6
  3  5  1  0
  3 22  1  0
  5  7  1  0
  5  6  2  0
  7  8  1  0
  7 21  1  0
  8  9  1  0
  9 10  1  0
 10 11  1  0
 10 20  1  0
 11 19  1  0
 11 12  2  0
 12 13  1  0
 13 14  2  0
 14 15  1  0
 15 16  1  0
 15 19  2  0
 16 17  1  0
 16 18  1  0
 20 21  1  0
 22 27  1  0
 22 23  2  0
 23 24  1  0
 24 25  2  0
 25 26  1  0
 26 27  2  0
M  END
>  <Torsion_Angle>  (44) 
215

>  <MMFF94_Energy>  (44) 
66.40

>  <MMFF94_Relative_Energy>  (44) 
6.64

$$$$
Mol1_Deg220
     RDKit          3D

 27 29  0  0  0  0  0  0  0  0999 V2000
   -3.4324   -2.3627    0.6880 C   0  0  0  0  0  0  0  0  0  0  0  0
   -3.0095   -1.0350    0.4024 O   0  0  0  0  0  0  0  0  0  0  0  0
   -3.7330   -0.3440   -0.6379 C   0  0  2  0  0  0  0  0  0  0  0  0
   -3.7796   -1.1873   -1.9316 C   0  0  0  0  0  0  0  0  0  0  0  0
   -2.9867    0.9988   -1.0405 C   0  0  0  0  0  0  0  0  0  0  0  0
   -3.6302    2.0413   -1.2243 O   0  0  0  0  0  0  0  0  0  0  0  0
   -1.6100    0.9935   -1.2966 N   0  0  0  0  0  0  0  0  0  0  0  0
   -0.6637   -0.0456   -0.8526 C   0  0  0  0  0  0  0  0  0  0  0  0
   -0.0263    0.3621    0.4956 C   0  0  0  0  0  0  0  0  0  0  0  0
    0.6105    1.6935    0.3799 N   0  0  0  0  0  0  0  0  0  0  0  0
    1.8655    1.6878   -0.2336 C   0  0  0  0  0  0  0  0  0  0  0  0
    2.3386    2.8283   -0.7601 N   0  0  0  0  0  0  0  0  0  0  0  0
    3.5570    2.7997   -1.3282 C   0  0  0  0  0  0  0  0  0  0  0  0
    4.3321    1.6718   -1.4066 C   0  0  0  0  0  0  0  0  0  0  0  0
    3.7848    0.5354   -0.8560 C   0  0  0  0  0  0  0  0  0  0  0  0
    4.5414   -0.7767   -0.8839 C   0  0  0  0  0  0  0  0  0  0  0  0
    3.7683   -1.8299   -1.6797 C   0  0  0  0  0  0  0  0  0  0  0  0
    4.8267   -1.2697    0.5355 C   0  0  0  0  0  0  0  0  0  0  0  0
    2.5639    0.5394   -0.2761 N   0  0  0  0  0  0  0  0  0  0  0  0
   -0.3098    2.7410   -0.1202 C   0  0  0  0  0  0  0  0  0  0  0  0
   -0.9532    2.3047   -1.4579 C   0  0  0  0  0  0  0  0  0  0  0  0
   -5.1268    0.0091   -0.0711 C   0  0  0  0  0  0  0  0  0  0  0  0
   -6.3170   -0.1613   -0.7983 C   0  0  0  0  0  0  0  0  0  0  0  0
   -7.5545    0.1737   -0.2395 C   0  0  0  0  0  0  0  0  0  0  0  0
   -7.6260    0.6915    1.0509 C   0  0  0  0  0  0  0  0  0  0  0  0
   -6.4598    0.8823    1.7848 C   0  0  0  0  0  0  0  0  0  0  0  0
   -5.2235    0.5485    1.2286 C   0  0  0  0  0  0  0  0  0  0  0  0
  1  2  1  0
  2  3  1  0
  3  4  1  6
  3  5  1  0
  3 22  1  0
  5  7  1  0
  5  6  2  0
  7  8  1  0
  7 21  1  0
  8  9  1  0
  9 10  1  0
 10 11  1  0
 10 20  1  0
 11 19  1  0
 11 12  2  0
 12 13  1  0
 13 14  2  0
 14 15  1  0
 15 16  1  0
 15 19  2  0
 16 17  1  0
 16 18  1  0
 20 21  1  0
 22 27  1  0
 22 23  2  0
 23 24  1  0
 24 25  2  0
 25 26  1  0
 26 27  2  0
M  END
>  <Torsion_Angle>  (45) 
220

>  <MMFF94_Energy>  (45) 
66.25

>  <MMFF94_Relative_Energy>  (45) 
6.49

$$$$
Mol1_Deg225
     RDKit          3D

 27 29  0  0  0  0  0  0  0  0999 V2000
   -3.4799   -2.3073    0.7794 C   0  0  0  0  0  0  0  0  0  0  0  0
   -3.0688   -0.9799    0.4761 O   0  0  0  0  0  0  0  0  0  0  0  0
   -3.7359   -0.3427   -0.6340 C   0  0  2  0  0  0  0  0  0  0  0  0
   -3.6793   -1.2309   -1.8970 C   0  0  0  0  0  0  0  0  0  0  0  0
   -2.9884    1.0014   -1.0286 C   0  0  0  0  0  0  0  0  0  0  0  0
   -3.6290    2.0412   -1.2345 O   0  0  0  0  0  0  0  0  0  0  0  0
   -1.6045    0.9972   -1.2459 N   0  0  0  0  0  0  0  0  0  0  0  0
   -0.6682    0.0247   -0.6717 C   0  0  0  0  0  0  0  0  0  0  0  0
   -0.1577    0.5124    0.7000 C   0  0  0  0  0  0  0  0  0  0  0  0
    0.4076    1.8731    0.5812 N   0  0  0  0  0  0  0  0  0  0  0  0
    0.9656    2.3503    1.7709 C   0  0  0  0  0  0  0  0  0  0  0  0
    1.1194    3.6746    1.9330 N   0  0  0  0  0  0  0  0  0  0  0  0
    1.6817    4.1044    3.0761 C   0  0  0  0  0  0  0  0  0  0  0  0
    2.1053    3.2677    4.0760 C   0  0  0  0  0  0  0  0  0  0  0  0
    1.9226    1.9231    3.8441 C   0  0  0  0  0  0  0  0  0  0  0  0
    2.3544    0.8979    4.8726 C   0  0  0  0  0  0  0  0  0  0  0  0
    3.4544   -0.0033    4.3097 C   0  0  0  0  0  0  0  0  0  0  0  0
    1.1607    0.0669    5.3465 C   0  0  0  0  0  0  0  0  0  0  0  0
    1.3622    1.4648    2.7029 N   0  0  0  0  0  0  0  0  0  0  0  0
   -0.4481    2.8643   -0.1073 C   0  0  0  0  0  0  0  0  0  0  0  0
   -0.9586    2.2995   -1.4494 C   0  0  0  0  0  0  0  0  0  0  0  0
   -5.1724   -0.0031   -0.1755 C   0  0  0  0  0  0  0  0  0  0  0  0
   -6.3054   -0.2178   -0.9785 C   0  0  0  0  0  0  0  0  0  0  0  0
   -7.5851    0.1067   -0.5172 C   0  0  0  0  0  0  0  0  0  0  0  0
   -7.7566    0.6583    0.7496 C   0  0  0  0  0  0  0  0  0  0  0  0
   -6.6485    0.8934    1.5570 C   0  0  0  0  0  0  0  0  0  0  0  0
   -5.3703    0.5699    1.0980 C   0  0  0  0  0  0  0  0  0  0  0  0
  1  2  1  0
  2  3  1  0
  3  4  1  6
  3  5  1  0
  3 22  1  0
  5  7  1  0
  5  6  2  0
  7  8  1  0
  7 21  1  0
  8  9  1  0
  9 10  1  0
 10 11  1  0
 10 20  1  0
 11 19  1  0
 11 12  2  0
 12 13  1  0
 13 14  2  0
 14 15  1  0
 15 16  1  0
 15 19  2  0
 16 17  1  0
 16 18  1  0
 20 21  1  0
 22 27  1  0
 22 23  2  0
 23 24  1  0
 24 25  2  0
 25 26  1  0
 26 27  2  0
M  END
>  <Torsion_Angle>  (46) 
225

>  <MMFF94_Energy>  (46) 
65.78

>  <MMFF94_Relative_Energy>  (46) 
6.01

$$$$
Mol1_Deg230
     RDKit          3D

 27 29  0  0  0  0  0  0  0  0999 V2000
   -3.5368   -2.2485    0.8658 C   0  0  0  0  0  0  0  0  0  0  0  0
   -3.1343   -0.9231    0.5431 O   0  0  0  0  0  0  0  0  0  0  0  0
   -3.7399   -0.3408   -0.6313 C   0  0  2  0  0  0  0  0  0  0  0  0
   -3.5895   -1.2709   -1.8558 C   0  0  0  0  0  0  0  0  0  0  0  0
   -2.9896    1.0040   -1.0167 C   0  0  0  0  0  0  0  0  0  0  0  0
   -3.6279    2.0405   -1.2442 O   0  0  0  0  0  0  0  0  0  0  0  0
   -1.5983    1.0049   -1.1862 N   0  0  0  0  0  0  0  0  0  0  0  0
   -0.6800    0.0650   -0.5332 C   0  0  0  0  0  0  0  0  0  0  0  0
   -0.2367    0.6088    0.8410 C   0  0  0  0  0  0  0  0  0  0  0  0
    0.3202    1.9703    0.6976 N   0  0  0  0  0  0  0  0  0  0  0  0
    0.8198    2.4962    1.8927 C   0  0  0  0  0  0  0  0  0  0  0  0
    0.9548    3.8270    2.0126 N   0  0  0  0  0  0  0  0  0  0  0  0
    1.4612    4.3037    3.1632 C   0  0  0  0  0  0  0  0  0  0  0  0
    1.8468    3.5082    4.2111 C   0  0  0  0  0  0  0  0  0  0  0  0
    1.6869    2.1543    4.0207 C   0  0  0  0  0  0  0  0  0  0  0  0
    2.0792    1.1717    5.1049 C   0  0  0  0  0  0  0  0  0  0  0  0
    3.1963    0.2465    4.6199 C   0  0  0  0  0  0  0  0  0  0  0  0
    0.8667    0.3626    5.5687 C   0  0  0  0  0  0  0  0  0  0  0  0
    1.1819    1.6492    2.8733 N   0  0  0  0  0  0  0  0  0  0  0  0
   -0.5147    2.9258   -0.0630 C   0  0  0  0  0  0  0  0  0  0  0  0
   -0.9573    2.3071   -1.4055 C   0  0  0  0  0  0  0  0  0  0  0  0
   -5.2101   -0.0155   -0.2791 C   0  0  0  0  0  0  0  0  0  0  0  0
   -6.2831   -0.2729   -1.1495 C   0  0  0  0  0  0  0  0  0  0  0  0
   -7.5963    0.0395   -0.7838 C   0  0  0  0  0  0  0  0  0  0  0  0
   -7.8621    0.6215    0.4527 C   0  0  0  0  0  0  0  0  0  0  0  0
   -6.8148    0.8995    1.3251 C   0  0  0  0  0  0  0  0  0  0  0  0
   -5.5033    0.5881    0.9616 C   0  0  0  0  0  0  0  0  0  0  0  0
  1  2  1  0
  2  3  1  0
  3  4  1  6
  3  5  1  0
  3 22  1  0
  5  7  1  0
  5  6  2  0
  7  8  1  0
  7 21  1  0
  8  9  1  0
  9 10  1  0
 10 11  1  0
 10 20  1  0
 11 19  1  0
 11 12  2  0
 12 13  1  0
 13 14  2  0
 14 15  1  0
 15 16  1  0
 15 19  2  0
 16 17  1  0
 16 18  1  0
 20 21  1  0
 22 27  1  0
 22 23  2  0
 23 24  1  0
 24 25  2  0
 25 26  1  0
 26 27  2  0
M  END
>  <Torsion_Angle>  (47) 
230

>  <MMFF94_Energy>  (47) 
65.75

>  <MMFF94_Relative_Energy>  (47) 
5.99

$$$$
Mol1_Deg235
     RDKit          3D

 27 29  0  0  0  0  0  0  0  0999 V2000
   -3.6002   -2.1878    0.9457 C   0  0  0  0  0  0  0  0  0  0  0  0
   -3.2061   -0.8647    0.6035 O   0  0  0  0  0  0  0  0  0  0  0  0
   -3.7439   -0.3392   -0.6298 C   0  0  2  0  0  0  0  0  0  0  0  0
   -3.5014   -1.3093   -1.8078 C   0  0  0  0  0  0  0  0  0  0  0  0
   -2.9912    1.0063   -1.0059 C   0  0  0  0  0  0  0  0  0  0  0  0
   -3.6265    2.0399   -1.2529 O   0  0  0  0  0  0  0  0  0  0  0  0
   -1.5948    1.0116   -1.1320 N   0  0  0  0  0  0  0  0  0  0  0  0
   -0.6968    0.1070   -0.4044 C   0  0  0  0  0  0  0  0  0  0  0  0
   -0.3087    0.7108    0.9616 C   0  0  0  0  0  0  0  0  0  0  0  0
    0.2455    2.0687    0.7823 N   0  0  0  0  0  0  0  0  0  0  0  0
    0.7028    2.6456    1.9706 C   0  0  0  0  0  0  0  0  0  0  0  0
    0.8249    3.9811    2.0418 N   0  0  0  0  0  0  0  0  0  0  0  0
    1.2922    4.5068    3.1876 C   0  0  0  0  0  0  0  0  0  0  0  0
    1.6509    3.7563    4.2774 C   0  0  0  0  0  0  0  0  0  0  0  0
    1.5066    2.3946    4.1357 C   0  0  0  0  0  0  0  0  0  0  0  0
    1.8719    1.4584    5.2694 C   0  0  0  0  0  0  0  0  0  0  0  0
    3.0010    0.5149    4.8519 C   0  0  0  0  0  0  0  0  0  0  0  0
    0.6480    0.6681    5.7356 C   0  0  0  0  0  0  0  0  0  0  0  0
    1.0401    1.8408    2.9946 N   0  0  0  0  0  0  0  0  0  0  0  0
   -0.5690    2.9860   -0.0441 C   0  0  0  0  0  0  0  0  0  0  0  0
   -0.9563    2.3107   -1.3762 C   0  0  0  0  0  0  0  0  0  0  0  0
   -5.2409   -0.0320   -0.3875 C   0  0  0  0  0  0  0  0  0  0  0  0
   -6.2465   -0.3290   -1.3234 C   0  0  0  0  0  0  0  0  0  0  0  0
   -7.5872   -0.0328   -1.0570 C   0  0  0  0  0  0  0  0  0  0  0  0
   -7.9480    0.5730    0.1435 C   0  0  0  0  0  0  0  0  0  0  0  0
   -6.9687    0.8910    1.0786 C   0  0  0  0  0  0  0  0  0  0  0  0
   -5.6299    0.5957    0.8143 C   0  0  0  0  0  0  0  0  0  0  0  0
  1  2  1  0
  2  3  1  0
  3  4  1  6
  3  5  1  0
  3 22  1  0
  5  7  1  0
  5  6  2  0
  7  8  1  0
  7 21  1  0
  8  9  1  0
  9 10  1  0
 10 11  1  0
 10 20  1  0
 11 19  1  0
 11 12  2  0
 12 13  1  0
 13 14  2  0
 14 15  1  0
 15 16  1  0
 15 19  2  0
 16 17  1  0
 16 18  1  0
 20 21  1  0
 22 27  1  0
 22 23  2  0
 23 24  1  0
 24 25  2  0
 25 26  1  0
 26 27  2  0
M  END
>  <Torsion_Angle>  (48) 
235

>  <MMFF94_Energy>  (48) 
65.78

>  <MMFF94_Relative_Energy>  (48) 
6.02

$$$$
Mol1_Deg240
     RDKit          3D

 27 29  0  0  0  0  0  0  0  0999 V2000
   -3.4442    0.1675    1.7094 C   0  0  0  0  0  0  0  0  0  0  0  0
   -3.3029   -0.8031    0.6716 O   0  0  0  0  0  0  0  0  0  0  0  0
   -3.7235   -0.3433   -0.6291 C   0  0  2  0  0  0  0  0  0  0  0  0
   -3.3334   -1.4419   -1.6467 C   0  0  0  0  0  0  0  0  0  0  0  0
   -2.9941    1.0042   -1.0377 C   0  0  0  0  0  0  0  0  0  0  0  0
   -3.6289    2.0469   -1.2341 O   0  0  0  0  0  0  0  0  0  0  0  0
   -1.6002    1.0103   -1.2017 N   0  0  0  0  0  0  0  0  0  0  0  0
   -0.9946    2.2745   -1.6430 C   0  0  0  0  0  0  0  0  0  0  0  0
    0.3659    2.0819   -2.3346 C   0  0  0  0  0  0  0  0  0  0  0  0
    1.2578    1.2433   -1.5197 N   0  0  0  0  0  0  0  0  0  0  0  0
    2.5465    1.1214   -2.0497 C   0  0  0  0  0  0  0  0  0  0  0  0
    3.0097    2.0834   -2.8644 N   0  0  0  0  0  0  0  0  0  0  0  0
    4.2629    1.9557   -3.3348 C   0  0  0  0  0  0  0  0  0  0  0  0
    5.0855    0.9022   -3.0299 C   0  0  0  0  0  0  0  0  0  0  0  0
    4.5491   -0.0479   -2.1906 C   0  0  0  0  0  0  0  0  0  0  0  0
    5.3614   -1.2582   -1.7773 C   0  0  0  0  0  0  0  0  0  0  0  0
    4.6860   -2.5496   -2.2420 C   0  0  0  0  0  0  0  0  0  0  0  0
    5.5800   -1.2736   -0.2636 C   0  0  0  0  0  0  0  0  0  0  0  0
    3.2929    0.0576   -1.7028 N   0  0  0  0  0  0  0  0  0  0  0  0
    0.6764   -0.0375   -1.0938 C   0  0  0  0  0  0  0  0  0  0  0  0
   -0.6817    0.1816   -0.4031 C   0  0  0  0  0  0  0  0  0  0  0  0
   -5.2764   -0.3039   -0.7046 C   0  0  0  0  0  0  0  0  0  0  0  0
   -5.9603    0.4194   -1.6984 C   0  0  0  0  0  0  0  0  0  0  0  0
   -7.3562    0.3978   -1.7821 C   0  0  0  0  0  0  0  0  0  0  0  0
   -8.1001   -0.3676   -0.8899 C   0  0  0  0  0  0  0  0  0  0  0  0
   -7.4487   -1.1220    0.0798 C   0  0  0  0  0  0  0  0  0  0  0  0
   -6.0540   -1.0988    0.1638 C   0  0  0  0  0  0  0  0  0  0  0  0
  1  2  1  0
  2  3  1  0
  3  4  1  6
  3  5  1  0
  3 22  1  0
  5  7  1  0
  5  6  2  0
  7  8  1  0
  7 21  1  0
  8  9  1  0
  9 10  1  0
 10 11  1  0
 10 20  1  0
 11 19  1  0
 11 12  2  0
 12 13  1  0
 13 14  2  0
 14 15  1  0
 15 16  1  0
 15 19  2  0
 16 17  1  0
 16 18  1  0
 20 21  1  0
 22 27  1  0
 22 23  2  0
 23 24  1  0
 24 25  2  0
 25 26  1  0
 26 27  2  0
M  END
>  <Torsion_Angle>  (49) 
240

>  <MMFF94_Energy>  (49) 
65.73

>  <MMFF94_Relative_Energy>  (49) 
5.97

$$$$
Mol1_Deg245
     RDKit          3D

 27 29  0  0  0  0  0  0  0  0999 V2000
   -3.5989    0.2590    1.7060 C   0  0  0  0  0  0  0  0  0  0  0  0
   -3.3860   -0.7467    0.7151 O   0  0  0  0  0  0  0  0  0  0  0  0
   -3.7278   -0.3391   -0.6255 C   0  0  2  0  0  0  0  0  0  0  0  0
   -3.2636   -1.4662   -1.5782 C   0  0  0  0  0  0  0  0  0  0  0  0
   -2.9943    1.0070   -1.0278 C   0  0  0  0  0  0  0  0  0  0  0  0
   -3.6283    2.0463   -1.2442 O   0  0  0  0  0  0  0  0  0  0  0  0
   -1.5962    1.0177   -1.1471 N   0  0  0  0  0  0  0  0  0  0  0  0
   -0.9870    2.2722   -1.6095 C   0  0  0  0  0  0  0  0  0  0  0  0
    0.4084    2.0716   -2.2251 C   0  0  0  0  0  0  0  0  0  0  0  0
    1.2701    1.2813   -1.3328 N   0  0  0  0  0  0  0  0  0  0  0  0
    2.5843    1.1550   -1.7946 C   0  0  0  0  0  0  0  0  0  0  0  0
    3.0742    2.0863   -2.6290 N   0  0  0  0  0  0  0  0  0  0  0  0
    4.3502    1.9563   -3.0327 C   0  0  0  0  0  0  0  0  0  0  0  0
    5.1703    0.9297   -2.6413 C   0  0  0  0  0  0  0  0  0  0  0  0
    4.6059    0.0101   -1.7865 C   0  0  0  0  0  0  0  0  0  0  0  0
    5.4126   -1.1681   -1.2802 C   0  0  0  0  0  0  0  0  0  0  0  0
    4.7740   -2.4893   -1.7121 C   0  0  0  0  0  0  0  0  0  0  0  0
    5.5627   -1.1089    0.2407 C   0  0  0  0  0  0  0  0  0  0  0  0
    3.3264    0.1188   -1.3646 N   0  0  0  0  0  0  0  0  0  0  0  0
    0.6848    0.0119   -0.8782 C   0  0  0  0  0  0  0  0  0  0  0  0
   -0.7084    0.2416   -0.2656 C   0  0  0  0  0  0  0  0  0  0  0  0
   -5.2728   -0.3209   -0.8000 C   0  0  0  0  0  0  0  0  0  0  0  0
   -5.8981    0.3665   -1.8561 C   0  0  0  0  0  0  0  0  0  0  0  0
   -7.2853    0.3262   -2.0279 C   0  0  0  0  0  0  0  0  0  0  0  0
   -8.0772   -0.4220   -1.1626 C   0  0  0  0  0  0  0  0  0  0  0  0
   -7.4822   -1.1400   -0.1310 C   0  0  0  0  0  0  0  0  0  0  0  0
   -6.0961   -1.0983    0.0413 C   0  0  0  0  0  0  0  0  0  0  0  0
  1  2  1  0
  2  3  1  0
  3  4  1  6
  3  5  1  0
  3 22  1  0
  5  7  1  0
  5  6  2  0
  7  8  1  0
  7 21  1  0
  8  9  1  0
  9 10  1  0
 10 11  1  0
 10 20  1  0
 11 19  1  0
 11 12  2  0
 12 13  1  0
 13 14  2  0
 14 15  1  0
 15 16  1  0
 15 19  2  0
 16 17  1  0
 16 18  1  0
 20 21  1  0
 22 27  1  0
 22 23  2  0
 23 24  1  0
 24 25  2  0
 25 26  1  0
 26 27  2  0
M  END
>  <Torsion_Angle>  (50) 
245

>  <MMFF94_Energy>  (50) 
65.71

>  <MMFF94_Relative_Energy>  (50) 
5.95

$$$$
Mol1_Deg250
     RDKit          3D

 27 29  0  0  0  0  0  0  0  0999 V2000
   -3.8424   -1.9964    1.1437 C   0  0  0  0  0  0  0  0  0  0  0  0
   -3.4518   -0.6902    0.7383 O   0  0  0  0  0  0  0  0  0  0  0  0
   -3.7573   -0.3334   -0.6290 C   0  0  2  0  0  0  0  0  0  0  0  0
   -3.2587   -1.4045   -1.6253 C   0  0  0  0  0  0  0  0  0  0  0  0
   -2.9978    1.0145   -0.9747 C   0  0  0  0  0  0  0  0  0  0  0  0
   -3.6210    2.0391   -1.2794 O   0  0  0  0  0  0  0  0  0  0  0  0
   -1.5942    1.0389   -0.9586 N   0  0  0  0  0  0  0  0  0  0  0  0
   -0.7936    0.2678    0.0013 C   0  0  0  0  0  0  0  0  0  0  0  0
   -0.6142    1.0521    1.3190 C   0  0  0  0  0  0  0  0  0  0  0  0
   -0.0639    2.3951    1.0458 N   0  0  0  0  0  0  0  0  0  0  0  0
    0.2095    3.1309    2.2028 C   0  0  0  0  0  0  0  0  0  0  0  0
    0.3018    4.4681    2.1176 N   0  0  0  0  0  0  0  0  0  0  0  0
    0.5902    5.1486    3.2407 C   0  0  0  0  0  0  0  0  0  0  0  0
    0.7971    4.5532    4.4581 C   0  0  0  0  0  0  0  0  0  0  0  0
    0.6943    3.1805    4.4742 C   0  0  0  0  0  0  0  0  0  0  0  0
    0.9045    2.4069    5.7597 C   0  0  0  0  0  0  0  0  0  0  0  0
    2.1048    1.4670    5.6368 C   0  0  0  0  0  0  0  0  0  0  0  0
   -0.3575    1.6298    6.1382 C   0  0  0  0  0  0  0  0  0  0  0  0
    0.4072    2.4726    3.3593 N   0  0  0  0  0  0  0  0  0  0  0  0
   -0.7760    3.1730    0.0090 C   0  0  0  0  0  0  0  0  0  0  0  0
   -0.9579    2.3253   -1.2673 C   0  0  0  0  0  0  0  0  0  0  0  0
   -5.2850   -0.0945   -0.7222 C   0  0  0  0  0  0  0  0  0  0  0  0
   -6.0582   -0.5006   -1.8239 C   0  0  0  0  0  0  0  0  0  0  0  0
   -7.4359   -0.2618   -1.8640 C   0  0  0  0  0  0  0  0  0  0  0  0
   -8.0661    0.3953   -0.8111 C   0  0  0  0  0  0  0  0  0  0  0  0
   -7.3197    0.8229    0.2819 C   0  0  0  0  0  0  0  0  0  0  0  0
   -5.9445    0.5848    0.3235 C   0  0  0  0  0  0  0  0  0  0  0  0
  1  2  1  0
  2  3  1  0
  3  4  1  6
  3  5  1  0
  3 22  1  0
  5  7  1  0
  5  6  2  0
  7  8  1  0
  7 21  1  0
  8  9  1  0
  9 10  1  0
 10 11  1  0
 10 20  1  0
 11 19  1  0
 11 12  2  0
 12 13  1  0
 13 14  2  0
 14 15  1  0
 15 16  1  0
 15 19  2  0
 16 17  1  0
 16 18  1  0
 20 21  1  0
 22 27  1  0
 22 23  2  0
 23 24  1  0
 24 25  2  0
 25 26  1  0
 26 27  2  0
M  END
>  <Torsion_Angle>  (51) 
250

>  <MMFF94_Energy>  (51) 
66.18

>  <MMFF94_Relative_Energy>  (51) 
6.42

$$$$
Mol1_Deg255
     RDKit          3D

 27 29  0  0  0  0  0  0  0  0999 V2000
   -3.9073    0.4309    1.6615 C   0  0  0  0  0  0  0  0  0  0  0  0
   -3.5640   -0.6361    0.7777 O   0  0  0  0  0  0  0  0  0  0  0  0
   -3.7381   -0.3303   -0.6210 C   0  0  2  0  0  0  0  0  0  0  0  0
   -3.1416   -1.5051   -1.4302 C   0  0  0  0  0  0  0  0  0  0  0  0
   -2.9954    1.0127   -1.0088 C   0  0  0  0  0  0  0  0  0  0  0  0
   -3.6256    2.0453   -1.2644 O   0  0  0  0  0  0  0  0  0  0  0  0
   -1.5937    1.0328   -1.0391 N   0  0  0  0  0  0  0  0  0  0  0  0
   -0.9698    2.2637   -1.5411 C   0  0  0  0  0  0  0  0  0  0  0  0
    0.4795    2.0500   -2.0105 C   0  0  0  0  0  0  0  0  0  0  0  0
    1.2704    1.3550   -0.9828 N   0  0  0  0  0  0  0  0  0  0  0  0
    2.6219    1.2197   -1.3171 C   0  0  0  0  0  0  0  0  0  0  0  0
    3.1701    2.0917   -2.1789 N   0  0  0  0  0  0  0  0  0  0  0  0
    4.4783    1.9563   -2.4593 C   0  0  0  0  0  0  0  0  0  0  0  0
    5.2748    0.9811   -1.9170 C   0  0  0  0  0  0  0  0  0  0  0  0
    4.6503    0.1209   -1.0423 C   0  0  0  0  0  0  0  0  0  0  0  0
    5.4250   -0.9981   -0.3766 C   0  0  0  0  0  0  0  0  0  0  0  0
    4.8554   -2.3615   -0.7720 C   0  0  0  0  0  0  0  0  0  0  0  0
    5.4248   -0.8293    1.1435 C   0  0  0  0  0  0  0  0  0  0  0  0
    3.3373    0.2363   -0.7425 N   0  0  0  0  0  0  0  0  0  0  0  0
    0.6667    0.1156   -0.4716 C   0  0  0  0  0  0  0  0  0  0  0  0
   -0.7805    0.3637   -0.0109 C   0  0  0  0  0  0  0  0  0  0  0  0
   -5.2484   -0.3577   -0.9882 C   0  0  0  0  0  0  0  0  0  0  0  0
   -5.7438    0.2602   -2.1509 C   0  0  0  0  0  0  0  0  0  0  0  0
   -7.0970    0.1804   -2.4935 C   0  0  0  0  0  0  0  0  0  0  0  0
   -7.9808   -0.5381   -1.6942 C   0  0  0  0  0  0  0  0  0  0  0  0
   -7.5114   -1.1860   -0.5564 C   0  0  0  0  0  0  0  0  0  0  0  0
   -6.1595   -1.1049   -0.2132 C   0  0  0  0  0  0  0  0  0  0  0  0
  1  2  1  0
  2  3  1  0
  3  4  1  6
  3  5  1  0
  3 22  1  0
  5  7  1  0
  5  6  2  0
  7  8  1  0
  7 21  1  0
  8  9  1  0
  9 10  1  0
 10 11  1  0
 10 20  1  0
 11 19  1  0
 11 12  2  0
 12 13  1  0
 13 14  2  0
 14 15  1  0
 15 16  1  0
 15 19  2  0
 16 17  1  0
 16 18  1  0
 20 21  1  0
 22 27  1  0
 22 23  2  0
 23 24  1  0
 24 25  2  0
 25 26  1  0
 26 27  2  0
M  END
>  <Torsion_Angle>  (52) 
255

>  <MMFF94_Energy>  (52) 
65.84

>  <MMFF94_Relative_Energy>  (52) 
6.08

$$$$
Mol1_Deg260
     RDKit          3D

 27 29  0  0  0  0  0  0  0  0999 V2000
   -4.0633    0.5094    1.6209 C   0  0  0  0  0  0  0  0  0  0  0  0
   -3.6576   -0.5826    0.7964 O   0  0  0  0  0  0  0  0  0  0  0  0
   -3.7441   -0.3259   -0.6203 C   0  0  2  0  0  0  0  0  0  0  0  0
   -3.0882   -1.5196   -1.3516 C   0  0  0  0  0  0  0  0  0  0  0  0
   -2.9964    1.0156   -0.9994 C   0  0  0  0  0  0  0  0  0  0  0  0
   -3.6234    2.0451   -1.2745 O   0  0  0  0  0  0  0  0  0  0  0  0
   -1.5948    1.0399   -0.9838 N   0  0  0  0  0  0  0  0  0  0  0  0
   -0.9598    2.2576   -1.5028 C   0  0  0  0  0  0  0  0  0  0  0  0
    0.5126    2.0415   -1.8931 C   0  0  0  0  0  0  0  0  0  0  0  0
    1.2591    1.3974   -0.8008 N   0  0  0  0  0  0  0  0  0  0  0  0
    2.6265    1.2644   -1.0626 C   0  0  0  0  0  0  0  0  0  0  0  0
    3.2091    2.1111   -1.9270 N   0  0  0  0  0  0  0  0  0  0  0  0
    4.5311    1.9808   -2.1362 C   0  0  0  0  0  0  0  0  0  0  0  0
    5.3085    1.0349   -1.5194 C   0  0  0  0  0  0  0  0  0  0  0  0
    4.6489    0.1995   -0.6465 C   0  0  0  0  0  0  0  0  0  0  0  0
    5.3995   -0.8877    0.0953 C   0  0  0  0  0  0  0  0  0  0  0  0
    4.8799   -2.2706   -0.3009 C   0  0  0  0  0  0  0  0  0  0  0  0
    5.3004   -0.6829    1.6079 C   0  0  0  0  0  0  0  0  0  0  0  0
    3.3213    0.3100   -0.4179 N   0  0  0  0  0  0  0  0  0  0  0  0
    0.6422    0.1743   -0.2665 C   0  0  0  0  0  0  0  0  0  0  0  0
   -0.8277    0.4268    0.1124 C   0  0  0  0  0  0  0  0  0  0  0  0
   -5.2276   -0.3799   -1.0810 C   0  0  0  0  0  0  0  0  0  0  0  0
   -5.6544    0.2066   -2.2864 C   0  0  0  0  0  0  0  0  0  0  0  0
   -6.9821    0.1023   -2.7117 C   0  0  0  0  0  0  0  0  0  0  0  0
   -7.9070   -0.6089   -1.9532 C   0  0  0  0  0  0  0  0  0  0  0  0
   -7.5040   -1.2247   -0.7728 C   0  0  0  0  0  0  0  0  0  0  0  0
   -6.1777   -1.1193   -0.3468 C   0  0  0  0  0  0  0  0  0  0  0  0
  1  2  1  0
  2  3  1  0
  3  4  1  6
  3  5  1  0
  3 22  1  0
  5  7  1  0
  5  6  2  0
  7  8  1  0
  7 21  1  0
  8  9  1  0
  9 10  1  0
 10 11  1  0
 10 20  1  0
 11 19  1  0
 11 12  2  0
 12 13  1  0
 13 14  2  0
 14 15  1  0
 15 16  1  0
 15 19  2  0
 16 17  1  0
 16 18  1  0
 20 21  1  0
 22 27  1  0
 22 23  2  0
 23 24  1  0
 24 25  2  0
 25 26  1  0
 26 27  2  0
M  END
>  <Torsion_Angle>  (53) 
260

>  <MMFF94_Energy>  (53) 
65.99

>  <MMFF94_Relative_Energy>  (53) 
6.23

$$$$
Mol1_Deg265
     RDKit          3D

 27 29  0  0  0  0  0  0  0  0999 V2000
   -4.2224    0.5759    1.5715 C   0  0  0  0  0  0  0  0  0  0  0  0
   -3.7516   -0.5326    0.8060 O   0  0  0  0  0  0  0  0  0  0  0  0
   -3.7524   -0.3204   -0.6208 C   0  0  2  0  0  0  0  0  0  0  0  0
   -3.0460   -1.5274   -1.2784 C   0  0  0  0  0  0  0  0  0  0  0  0
   -2.9980    1.0194   -0.9866 C   0  0  0  0  0  0  0  0  0  0  0  0
   -3.6201    2.0447   -1.2877 O   0  0  0  0  0  0  0  0  0  0  0  0
   -1.5980    1.0534   -0.9102 N   0  0  0  0  0  0  0  0  0  0  0  0
   -0.8917    0.4897    0.2609 C   0  0  0  0  0  0  0  0  0  0  0  0
    0.6158    0.2996   -0.0044 C   0  0  0  0  0  0  0  0  0  0  0  0
    1.2214    1.5466   -0.4981 N   0  0  0  0  0  0  0  0  0  0  0  0
    1.4769    2.5035    0.4860 C   0  0  0  0  0  0  0  0  0  0  0  0
    1.6277    2.1032    1.7585 N   0  0  0  0  0  0  0  0  0  0  0  0
    1.8892    3.0440    2.6827 C   0  0  0  0  0  0  0  0  0  0  0  0
    2.0008    4.3801    2.3963 C   0  0  0  0  0  0  0  0  0  0  0  0
    1.8298    4.7244    1.0736 C   0  0  0  0  0  0  0  0  0  0  0  0
    1.9202    6.1594    0.5970 C   0  0  0  0  0  0  0  0  0  0  0  0
    3.3073    6.7538    0.8470 C   0  0  0  0  0  0  0  0  0  0  0  0
    0.8268    7.0295    1.2191 C   0  0  0  0  0  0  0  0  0  0  0  0
    1.5693    3.7958    0.1267 N   0  0  0  0  0  0  0  0  0  0  0  0
    0.5532    2.0667   -1.7029 C   0  0  0  0  0  0  0  0  0  0  0  0
   -0.9551    2.2643   -1.4548 C   0  0  0  0  0  0  0  0  0  0  0  0
   -5.2047   -0.3994   -1.1691 C   0  0  0  0  0  0  0  0  0  0  0  0
   -6.1888   -1.1384   -0.4806 C   0  0  0  0  0  0  0  0  0  0  0  0
   -7.4859   -1.2662   -0.9835 C   0  0  0  0  0  0  0  0  0  0  0  0
   -7.8240   -0.6735   -2.1957 C   0  0  0  0  0  0  0  0  0  0  0  0
   -6.8633    0.0372   -2.9088 C   0  0  0  0  0  0  0  0  0  0  0  0
   -5.5647    0.1640   -2.4068 C   0  0  0  0  0  0  0  0  0  0  0  0
  1  2  1  0
  2  3  1  0
  3  4  1  6
  3  5  1  0
  3 22  1  0
  5  7  1  0
  5  6  2  0
  7  8  1  0
  7 21  1  0
  8  9  1  0
  9 10  1  0
 10 11  1  0
 10 20  1  0
 11 19  1  0
 11 12  2  0
 12 13  1  0
 13 14  2  0
 14 15  1  0
 15 16  1  0
 15 19  2  0
 16 17  1  0
 16 18  1  0
 20 21  1  0
 22 27  1  0
 22 23  2  0
 23 24  1  0
 24 25  2  0
 25 26  1  0
 26 27  2  0
M  END
>  <Torsion_Angle>  (54) 
265

>  <MMFF94_Energy>  (54) 
66.87

>  <MMFF94_Relative_Energy>  (54) 
7.11

$$$$
Mol1_Deg270
     RDKit          3D

 27 29  0  0  0  0  0  0  0  0999 V2000
   -4.4631    0.6323    1.4771 C   0  0  0  0  0  0  0  0  0  0  0  0
   -3.8548   -0.4706    0.8066 O   0  0  0  0  0  0  0  0  0  0  0  0
   -3.7517   -0.3238   -0.6252 C   0  0  2  0  0  0  0  0  0  0  0  0
   -2.9769   -1.5471   -1.1659 C   0  0  0  0  0  0  0  0  0  0  0  0
   -2.9976    1.0176   -0.9885 C   0  0  0  0  0  0  0  0  0  0  0  0
   -3.6204    2.0446   -1.2830 O   0  0  0  0  0  0  0  0  0  0  0  0
   -1.6015    1.0510   -0.9189 N   0  0  0  0  0  0  0  0  0  0  0  0
   -0.8770    0.5338    0.2527 C   0  0  0  0  0  0  0  0  0  0  0  0
   -0.6228    1.6307    1.3123 C   0  0  0  0  0  0  0  0  0  0  0  0
   -0.0243    2.8301    0.7027 N   0  0  0  0  0  0  0  0  0  0  0  0
    0.3023    3.8239    1.6312 C   0  0  0  0  0  0  0  0  0  0  0  0
    0.4526    5.0881    1.2047 N   0  0  0  0  0  0  0  0  0  0  0  0
    0.7933    6.0184    2.1131 C   0  0  0  0  0  0  0  0  0  0  0  0
    0.9959    5.7449    3.4411 C   0  0  0  0  0  0  0  0  0  0  0  0
    0.8300    4.4289    3.8130 C   0  0  0  0  0  0  0  0  0  0  0  0
    1.0213    3.9669    5.2429 C   0  0  0  0  0  0  0  0  0  0  0  0
    2.4575    4.1873    5.7212 C   0  0  0  0  0  0  0  0  0  0  0  0
    0.0173    4.6273    6.1893 C   0  0  0  0  0  0  0  0  0  0  0  0
    0.4878    3.4756    2.9178 N   0  0  0  0  0  0  0  0  0  0  0  0
   -0.7300    3.3467   -0.4854 C   0  0  0  0  0  0  0  0  0  0  0  0
   -0.9315    2.2149   -1.5093 C   0  0  0  0  0  0  0  0  0  0  0  0
   -5.1516   -0.4544   -1.2866 C   0  0  0  0  0  0  0  0  0  0  0  0
   -6.1592   -1.2273   -0.6732 C   0  0  0  0  0  0  0  0  0  0  0  0
   -7.4079   -1.4019   -1.2744 C   0  0  0  0  0  0  0  0  0  0  0  0
   -7.6714   -0.8229   -2.5115 C   0  0  0  0  0  0  0  0  0  0  0  0
   -6.6840   -0.0790   -3.1508 C   0  0  0  0  0  0  0  0  0  0  0  0
   -5.4335    0.0948   -2.5503 C   0  0  0  0  0  0  0  0  0  0  0  0
  1  2  1  0
  2  3  1  0
  3  4  1  6
  3  5  1  0
  3 22  1  0
  5  7  1  0
  5  6  2  0
  7  8  1  0
  7 21  1  0
  8  9  1  0
  9 10  1  0
 10 11  1  0
 10 20  1  0
 11 19  1  0
 11 12  2  0
 12 13  1  0
 13 14  2  0
 14 15  1  0
 15 16  1  0
 15 19  2  0
 16 17  1  0
 16 18  1  0
 20 21  1  0
 22 27  1  0
 22 23  2  0
 23 24  1  0
 24 25  2  0
 25 26  1  0
 26 27  2  0
M  END
>  <Torsion_Angle>  (55) 
270

>  <MMFF94_Energy>  (55) 
67.08

>  <MMFF94_Relative_Energy>  (55) 
7.31

$$$$
Mol1_Deg275
     RDKit          3D

 27 29  0  0  0  0  0  0  0  0999 V2000
   -4.5927    0.7041    1.3976 C   0  0  0  0  0  0  0  0  0  0  0  0
   -3.9553   -0.4228    0.7989 O   0  0  0  0  0  0  0  0  0  0  0  0
   -3.7563   -0.3201   -0.6263 C   0  0  2  0  0  0  0  0  0  0  0  0
   -2.9406   -1.5540   -1.0727 C   0  0  0  0  0  0  0  0  0  0  0  0
   -2.9979    1.0200   -0.9835 C   0  0  0  0  0  0  0  0  0  0  0  0
   -3.6180    2.0451   -1.2901 O   0  0  0  0  0  0  0  0  0  0  0  0
   -1.6034    1.0548   -0.8849 N   0  0  0  0  0  0  0  0  0  0  0  0
   -0.9219    2.1990   -1.5175 C   0  0  0  0  0  0  0  0  0  0  0  0
   -0.7102    3.3608   -0.5237 C   0  0  0  0  0  0  0  0  0  0  0  0
    0.0042    2.8789    0.6754 N   0  0  0  0  0  0  0  0  0  0  0  0
    1.3801    2.7121    0.5109 C   0  0  0  0  0  0  0  0  0  0  0  0
    2.0347    1.8671    1.3231 N   0  0  0  0  0  0  0  0  0  0  0  0
    3.3630    1.7424    1.1565 C   0  0  0  0  0  0  0  0  0  0  0  0
    4.0759    2.4203    0.2018 C   0  0  0  0  0  0  0  0  0  0  0  0
    3.3438    3.2638   -0.6043 C   0  0  0  0  0  0  0  0  0  0  0  0
    3.9849    4.0828   -1.7056 C   0  0  0  0  0  0  0  0  0  0  0  0
    5.0074    5.0762   -1.1511 C   0  0  0  0  0  0  0  0  0  0  0  0
    4.6083    3.1916   -2.7812 C   0  0  0  0  0  0  0  0  0  0  0  0
    2.0082    3.4064   -0.4543 N   0  0  0  0  0  0  0  0  0  0  0  0
   -0.6807    1.7554    1.3375 C   0  0  0  0  0  0  0  0  0  0  0  0
   -0.9249    0.5912    0.3446 C   0  0  0  0  0  0  0  0  0  0  0  0
   -5.1088   -0.4799   -1.3738 C   0  0  0  0  0  0  0  0  0  0  0  0
   -5.3058    0.0272   -2.6708 C   0  0  0  0  0  0  0  0  0  0  0  0
   -6.5131   -0.1705   -3.3472 C   0  0  0  0  0  0  0  0  0  0  0  0
   -7.5403   -0.8957   -2.7505 C   0  0  0  0  0  0  0  0  0  0  0  0
   -7.3598   -1.4317   -1.4793 C   0  0  0  0  0  0  0  0  0  0  0  0
   -6.1545   -1.2334   -0.8021 C   0  0  0  0  0  0  0  0  0  0  0  0
  1  2  1  0
  2  3  1  0
  3  4  1  6
  3  5  1  0
  3 22  1  0
  5  7  1  0
  5  6  2  0
  7  8  1  0
  7 21  1  0
  8  9  1  0
  9 10  1  0
 10 11  1  0
 10 20  1  0
 11 19  1  0
 11 12  2  0
 12 13  1  0
 13 14  2  0
 14 15  1  0
 15 16  1  0
 15 19  2  0
 16 17  1  0
 16 18  1  0
 20 21  1  0
 22 27  1  0
 22 23  2  0
 23 24  1  0
 24 25  2  0
 25 26  1  0
 26 27  2  0
M  END
>  <Torsion_Angle>  (56) 
275

>  <MMFF94_Energy>  (56) 
67.43

>  <MMFF94_Relative_Energy>  (56) 
7.66

$$$$
Mol1_Deg280
     RDKit          3D

 27 29  0  0  0  0  0  0  0  0999 V2000
   -4.7383    0.7531    1.3107 C   0  0  0  0  0  0  0  0  0  0  0  0
   -4.0520   -0.3800    0.7823 O   0  0  0  0  0  0  0  0  0  0  0  0
   -3.7653   -0.3151   -0.6304 C   0  0  2  0  0  0  0  0  0  0  0  0
   -2.9188   -1.5544   -0.9961 C   0  0  0  0  0  0  0  0  0  0  0  0
   -3.0000    1.0239   -0.9704 C   0  0  0  0  0  0  0  0  0  0  0  0
   -3.6133    2.0448   -1.3030 O   0  0  0  0  0  0  0  0  0  0  0  0
   -1.6119    1.0660   -0.8133 N   0  0  0  0  0  0  0  0  0  0  0  0
   -0.9093    2.1995   -1.4248 C   0  0  0  0  0  0  0  0  0  0  0  0
   -0.8050    3.4062   -0.4739 C   0  0  0  0  0  0  0  0  0  0  0  0
   -0.2022    2.9877    0.8055 N   0  0  0  0  0  0  0  0  0  0  0  0
    0.0352    4.0516    1.6820 C   0  0  0  0  0  0  0  0  0  0  0  0
    0.2138    5.2828    1.1771 N   0  0  0  0  0  0  0  0  0  0  0  0
    0.4672    6.2819    2.0398 C   0  0  0  0  0  0  0  0  0  0  0  0
    0.5550    6.1097    3.3971 C   0  0  0  0  0  0  0  0  0  0  0  0
    0.3669    4.8223    3.8501 C   0  0  0  0  0  0  0  0  0  0  0  0
    0.4365    4.4692    5.3216 C   0  0  0  0  0  0  0  0  0  0  0  0
   -0.6514    5.1827    6.1261 C   0  0  0  0  0  0  0  0  0  0  0  0
    1.8238    4.7445    5.9044 C   0  0  0  0  0  0  0  0  0  0  0  0
    0.1107    3.8014    3.0022 N   0  0  0  0  0  0  0  0  0  0  0  0
   -0.8485    1.8313    1.4476 C   0  0  0  0  0  0  0  0  0  0  0  0
   -0.9929    0.6537    0.4562 C   0  0  0  0  0  0  0  0  0  0  0  0
   -5.0686   -0.5008   -1.4555 C   0  0  0  0  0  0  0  0  0  0  0  0
   -5.1911   -0.0164   -2.7703 C   0  0  0  0  0  0  0  0  0  0  0  0
   -6.3534   -0.2373   -3.5149 C   0  0  0  0  0  0  0  0  0  0  0  0
   -7.4083   -0.9629   -2.9689 C   0  0  0  0  0  0  0  0  0  0  0  0
   -7.3006   -1.4759   -1.6801 C   0  0  0  0  0  0  0  0  0  0  0  0
   -6.1403   -1.2547   -0.9348 C   0  0  0  0  0  0  0  0  0  0  0  0
  1  2  1  0
  2  3  1  0
  3  4  1  6
  3  5  1  0
  3 22  1  0
  5  7  1  0
  5  6  2  0
  7  8  1  0
  7 21  1  0
  8  9  1  0
  9 10  1  0
 10 11  1  0
 10 20  1  0
 11 19  1  0
 11 12  2  0
 12 13  1  0
 13 14  2  0
 14 15  1  0
 15 16  1  0
 15 19  2  0
 16 17  1  0
 16 18  1  0
 20 21  1  0
 22 27  1  0
 22 23  2  0
 23 24  1  0
 24 25  2  0
 25 26  1  0
 26 27  2  0
M  END
>  <Torsion_Angle>  (57) 
280

>  <MMFF94_Energy>  (57) 
67.62

>  <MMFF94_Relative_Energy>  (57) 
7.86

$$$$
Mol1_Deg285
     RDKit          3D

 27 29  0  0  0  0  0  0  0  0999 V2000
   -4.8671    0.8055    1.2142 C   0  0  0  0  0  0  0  0  0  0  0  0
   -4.1504   -0.3395    0.7572 O   0  0  0  0  0  0  0  0  0  0  0  0
   -3.7721   -0.3112   -0.6349 C   0  0  2  0  0  0  0  0  0  0  0  0
   -2.8989   -1.5542   -0.9119 C   0  0  0  0  0  0  0  0  0  0  0  0
   -3.0015    1.0270   -0.9615 C   0  0  0  0  0  0  0  0  0  0  0  0
   -3.6089    2.0451   -1.3127 O   0  0  0  0  0  0  0  0  0  0  0  0
   -1.6194    1.0730   -0.7616 N   0  0  0  0  0  0  0  0  0  0  0  0
   -1.0551    0.7117    0.5483 C   0  0  0  0  0  0  0  0  0  0  0  0
   -0.9557    1.9258    1.5006 C   0  0  0  0  0  0  0  0  0  0  0  0
   -0.2805    3.0571    0.8442 N   0  0  0  0  0  0  0  0  0  0  0  0
   -0.0737    4.1514    1.6902 C   0  0  0  0  0  0  0  0  0  0  0  0
    0.1255    5.3637    1.1485 N   0  0  0  0  0  0  0  0  0  0  0  0
    0.3507    6.3926    1.9835 C   0  0  0  0  0  0  0  0  0  0  0  0
    0.3906    6.2685    3.3482 C   0  0  0  0  0  0  0  0  0  0  0  0
    0.1835    4.9984    3.8398 C   0  0  0  0  0  0  0  0  0  0  0  0
    0.2020    4.6976    5.3244 C   0  0  0  0  0  0  0  0  0  0  0  0
    1.5716    4.9853    5.9419 C   0  0  0  0  0  0  0  0  0  0  0  0
   -0.9062    5.4459    6.0672 C   0  0  0  0  0  0  0  0  0  0  0  0
   -0.0454    3.9482    3.0202 N   0  0  0  0  0  0  0  0  0  0  0  0
   -0.8316    3.4290   -0.4721 C   0  0  0  0  0  0  0  0  0  0  0  0
   -0.8975    2.1888   -1.3828 C   0  0  0  0  0  0  0  0  0  0  0  0
   -5.0203   -0.5255   -1.5348 C   0  0  0  0  0  0  0  0  0  0  0  0
   -6.1173   -1.2761   -1.0647 C   0  0  0  0  0  0  0  0  0  0  0  0
   -7.2279   -1.5217   -1.8752 C   0  0  0  0  0  0  0  0  0  0  0  0
   -7.2593   -1.0362   -3.1786 C   0  0  0  0  0  0  0  0  0  0  0  0
   -6.1776   -0.3133   -3.6738 C   0  0  0  0  0  0  0  0  0  0  0  0
   -5.0648   -0.0681   -2.8641 C   0  0  0  0  0  0  0  0  0  0  0  0
  1  2  1  0
  2  3  1  0
  3  4  1  1
  3  5  1  0
  3 22  1  0
  5  7  1  0
  5  6  2  0
  7  8  1  0
  7 21  1  0
  8  9  1  0
  9 10  1  0
 10 11  1  0
 10 20  1  0
 11 19  1  0
 11 12  2  0
 12 13  1  0
 13 14  2  0
 14 15  1  0
 15 16  1  0
 15 19  2  0
 16 17  1  0
 16 18  1  0
 20 21  1  0
 22 27  1  0
 22 23  2  0
 23 24  1  0
 24 25  2  0
 25 26  1  0
 26 27  2  0
M  END
>  <Torsion_Angle>  (58) 
285

>  <MMFF94_Energy>  (58) 
67.97

>  <MMFF94_Relative_Energy>  (58) 
8.20

$$$$
Mol1_Deg290
     RDKit          3D

 27 29  0  0  0  0  0  0  0  0999 V2000
   -4.9964    0.8483    1.1076 C   0  0  0  0  0  0  0  0  0  0  0  0
   -4.2471   -0.3023    0.7238 O   0  0  0  0  0  0  0  0  0  0  0  0
   -3.7794   -0.3076   -0.6413 C   0  0  2  0  0  0  0  0  0  0  0  0
   -2.8844   -1.5512   -0.8296 C   0  0  0  0  0  0  0  0  0  0  0  0
   -3.0033    1.0303   -0.9513 C   0  0  0  0  0  0  0  0  0  0  0  0
   -3.6038    2.0453   -1.3227 O   0  0  0  0  0  0  0  0  0  0  0  0
   -1.6297    1.0835   -0.7011 N   0  0  0  0  0  0  0  0  0  0  0  0
   -1.1276    0.7697    0.6459 C   0  0  0  0  0  0  0  0  0  0  0  0
   -1.0879    2.0132    1.5639 C   0  0  0  0  0  0  0  0  0  0  0  0
   -0.3880    3.1298    0.9085 N   0  0  0  0  0  0  0  0  0  0  0  0
   -0.2364    4.2518    1.7300 C   0  0  0  0  0  0  0  0  0  0  0  0
   -0.0176    5.4487    1.1622 N   0  0  0  0  0  0  0  0  0  0  0  0
    0.1509    6.5054    1.9756 C   0  0  0  0  0  0  0  0  0  0  0  0
    0.1148    6.4243    3.3437 C   0  0  0  0  0  0  0  0  0  0  0  0
   -0.1074    5.1677    3.8628 C   0  0  0  0  0  0  0  0  0  0  0  0
   -0.1713    4.9136    5.3549 C   0  0  0  0  0  0  0  0  0  0  0  0
    1.1524    5.2496    6.0439 C   0  0  0  0  0  0  0  0  0  0  0  0
   -1.3370    5.6606    6.0052 C   0  0  0  0  0  0  0  0  0  0  0  0
   -0.2802    4.0902    3.0653 N   0  0  0  0  0  0  0  0  0  0  0  0
   -0.8752    3.4568   -0.4444 C   0  0  0  0  0  0  0  0  0  0  0  0
   -0.8890    2.1889   -1.3192 C   0  0  0  0  0  0  0  0  0  0  0  0
   -4.9659   -0.5508   -1.6140 C   0  0  0  0  0  0  0  0  0  0  0  0
   -6.0864   -1.2988   -1.1987 C   0  0  0  0  0  0  0  0  0  0  0  0
   -7.1410   -1.5695   -2.0733 C   0  0  0  0  0  0  0  0  0  0  0  0
   -7.0912   -1.1119   -3.3863 C   0  0  0  0  0  0  0  0  0  0  0  0
   -5.9845   -0.3914   -3.8266 C   0  0  0  0  0  0  0  0  0  0  0  0
   -4.9277   -0.1208   -2.9527 C   0  0  0  0  0  0  0  0  0  0  0  0
  1  2  1  0
  2  3  1  0
  3  4  1  1
  3  5  1  0
  3 22  1  0
  5  7  1  0
  5  6  2  0
  7  8  1  0
  7 21  1  0
  8  9  1  0
  9 10  1  0
 10 11  1  0
 10 20  1  0
 11 19  1  0
 11 12  2  0
 12 13  1  0
 13 14  2  0
 14 15  1  0
 15 16  1  0
 15 19  2  0
 16 17  1  0
 16 18  1  0
 20 21  1  0
 22 27  1  0
 22 23  2  0
 23 24  1  0
 24 25  2  0
 25 26  1  0
 26 27  2  0
M  END
>  <Torsion_Angle>  (59) 
290

>  <MMFF94_Energy>  (59) 
68.34

>  <MMFF94_Relative_Energy>  (59) 
8.58

$$$$
Mol1_Deg295
     RDKit          3D

 27 29  0  0  0  0  0  0  0  0999 V2000
   -5.1167    0.8866    0.9938 C   0  0  0  0  0  0  0  0  0  0  0  0
   -4.3424   -0.2689    0.6822 O   0  0  0  0  0  0  0  0  0  0  0  0
   -3.7861   -0.3045   -0.6488 C   0  0  2  0  0  0  0  0  0  0  0  0
   -2.8758   -1.5465   -0.7485 C   0  0  0  0  0  0  0  0  0  0  0  0
   -3.0053    1.0336   -0.9417 C   0  0  0  0  0  0  0  0  0  0  0  0
   -3.5982    2.0458   -1.3320 O   0  0  0  0  0  0  0  0  0  0  0  0
   -1.6415    1.0926   -0.6446 N   0  0  0  0  0  0  0  0  0  0  0  0
   -1.2002    0.8256    0.7333 C   0  0  0  0  0  0  0  0  0  0  0  0
   -1.2084    2.0977    1.6120 C   0  0  0  0  0  0  0  0  0  0  0  0
   -0.4794    3.1945    0.9552 N   0  0  0  0  0  0  0  0  0  0  0  0
   -0.3655    4.3417    1.7473 C   0  0  0  0  0  0  0  0  0  0  0  0
   -0.1161    5.5198    1.1532 N   0  0  0  0  0  0  0  0  0  0  0  0
    0.0160    6.6015    1.9401 C   0  0  0  0  0  0  0  0  0  0  0  0
   -0.0866    6.5638    3.3067 C   0  0  0  0  0  0  0  0  0  0  0  0
   -0.3377    5.3247    3.8539 C   0  0  0  0  0  0  0  0  0  0  0  0
   -0.4751    5.1181    5.3483 C   0  0  0  0  0  0  0  0  0  0  0  0
    0.8163    5.4691    6.0892 C   0  0  0  0  0  0  0  0  0  0  0  0
   -1.6657    5.8911    5.9183 C   0  0  0  0  0  0  0  0  0  0  0  0
   -0.4743    4.2226    3.0834 N   0  0  0  0  0  0  0  0  0  0  0  0
   -0.9060    3.4784   -0.4273 C   0  0  0  0  0  0  0  0  0  0  0  0
   -0.8802    2.1840   -1.2627 C   0  0  0  0  0  0  0  0  0  0  0  0
   -4.9070   -0.5760   -1.6894 C   0  0  0  0  0  0  0  0  0  0  0  0
   -6.0472   -1.3231   -1.3307 C   0  0  0  0  0  0  0  0  0  0  0  0
   -7.0429   -1.6176   -2.2646 C   0  0  0  0  0  0  0  0  0  0  0  0
   -6.9130   -1.1846   -3.5805 C   0  0  0  0  0  0  0  0  0  0  0  0
   -5.7849   -0.4647   -3.9641 C   0  0  0  0  0  0  0  0  0  0  0  0
   -4.7868   -0.1705   -3.0309 C   0  0  0  0  0  0  0  0  0  0  0  0
  1  2  1  0
  2  3  1  0
  3  4  1  1
  3  5  1  0
  3 22  1  0
  5  7  1  0
  5  6  2  0
  7  8  1  0
  7 21  1  0
  8  9  1  0
  9 10  1  0
 10 11  1  0
 10 20  1  0
 11 19  1  0
 11 12  2  0
 12 13  1  0
 13 14  2  0
 14 15  1  0
 15 16  1  0
 15 19  2  0
 16 17  1  0
 16 18  1  0
 20 21  1  0
 22 27  1  0
 22 23  2  0
 23 24  1  0
 24 25  2  0
 25 26  1  0
 26 27  2  0
M  END
>  <Torsion_Angle>  (60) 
295

>  <MMFF94_Energy>  (60) 
68.76

>  <MMFF94_Relative_Energy>  (60) 
9.00

$$$$
Mol1_Deg300
     RDKit          3D

 27 29  0  0  0  0  0  0  0  0999 V2000
   -4.2216    0.8893    1.4747 C   0  0  0  0  0  0  0  0  0  0  0  0
   -4.5432   -0.1521    0.5656 O   0  0  0  0  0  0  0  0  0  0  0  0
   -3.6425   -0.3449   -0.5431 C   0  0  2  0  0  0  0  0  0  0  0  0
   -2.5080   -1.2096    0.0634 C   0  0  0  0  0  0  0  0  0  0  0  0
   -3.0181    0.9807   -1.1687 C   0  0  0  0  0  0  0  0  0  0  0  0
   -3.6237    2.0582   -1.1514 O   0  0  0  0  0  0  0  0  0  0  0  0
   -1.7733    0.9058   -1.8110 N   0  0  0  0  0  0  0  0  0  0  0  0
   -1.5504   -0.0818   -2.8784 C   0  0  0  0  0  0  0  0  0  0  0  0
   -2.0327    0.4384   -4.2515 C   0  0  0  0  0  0  0  0  0  0  0  0
   -1.4317    1.7514   -4.5443 N   0  0  0  0  0  0  0  0  0  0  0  0
   -1.7451    2.2347   -5.8190 C   0  0  0  0  0  0  0  0  0  0  0  0
   -1.6429    3.5520   -6.0584 N   0  0  0  0  0  0  0  0  0  0  0  0
   -1.9267    3.9859   -7.2985 C   0  0  0  0  0  0  0  0  0  0  0  0
   -2.3075    3.1595   -8.3240 C   0  0  0  0  0  0  0  0  0  0  0  0
   -2.3852    1.8193   -8.0149 C   0  0  0  0  0  0  0  0  0  0  0  0
   -2.7896    0.7793   -9.0392 C   0  0  0  0  0  0  0  0  0  0  0  0
   -1.8043    0.7218  -10.2079 C   0  0  0  0  0  0  0  0  0  0  0  0
   -4.2200    1.0011   -9.5338 C   0  0  0  0  0  0  0  0  0  0  0  0
   -2.1041    1.3591   -6.7757 N   0  0  0  0  0  0  0  0  0  0  0  0
   -1.5930    2.7612   -3.4800 C   0  0  0  0  0  0  0  0  0  0  0  0
   -1.1263    2.1864   -2.1267 C   0  0  0  0  0  0  0  0  0  0  0  0
   -4.5061   -1.0676   -1.5894 C   0  0  0  0  0  0  0  0  0  0  0  0
   -5.4941   -0.3453   -2.2877 C   0  0  0  0  0  0  0  0  0  0  0  0
   -6.2917   -0.9564   -3.2575 C   0  0  0  0  0  0  0  0  0  0  0  0
   -6.1318   -2.3090   -3.5386 C   0  0  0  0  0  0  0  0  0  0  0  0
   -5.1839   -3.0516   -2.8409 C   0  0  0  0  0  0  0  0  0  0  0  0
   -4.3842   -2.4399   -1.8704 C   0  0  0  0  0  0  0  0  0  0  0  0
  1  2  1  0
  2  3  1  0
  3  4  1  1
  3  5  1  0
  3 22  1  0
  5  7  1  0
  5  6  2  0
  7  8  1  0
  7 21  1  0
  8  9  1  0
  9 10  1  0
 10 11  1  0
 10 20  1  0
 11 19  1  0
 11 12  2  0
 12 13  1  0
 13 14  2  0
 14 15  1  0
 15 16  1  0
 15 19  2  0
 16 17  1  0
 16 18  1  0
 20 21  1  0
 22 27  1  0
 22 23  2  0
 23 24  1  0
 24 25  2  0
 25 26  1  0
 26 27  2  0
M  END
>  <Torsion_Angle>  (61) 
300

>  <MMFF94_Energy>  (61) 
69.17

>  <MMFF94_Relative_Energy>  (61) 
9.41

$$$$
Mol1_Deg305
     RDKit          3D

 27 29  0  0  0  0  0  0  0  0999 V2000
   -4.3520    0.9085    1.4293 C   0  0  0  0  0  0  0  0  0  0  0  0
   -4.6263   -0.1298    0.5014 O   0  0  0  0  0  0  0  0  0  0  0  0
   -3.6574   -0.3387   -0.5460 C   0  0  2  0  0  0  0  0  0  0  0  0
   -2.5527   -1.1844    0.1359 C   0  0  0  0  0  0  0  0  0  0  0  0
   -3.0116    0.9838   -1.1537 C   0  0  0  0  0  0  0  0  0  0  0  0
   -3.6237    2.0581   -1.1650 O   0  0  0  0  0  0  0  0  0  0  0  0
   -1.7365    0.9137   -1.7346 N   0  0  0  0  0  0  0  0  0  0  0  0
   -1.4441   -0.1043   -2.7657 C   0  0  0  0  0  0  0  0  0  0  0  0
   -1.8139    0.4062   -4.1811 C   0  0  0  0  0  0  0  0  0  0  0  0
   -1.1505    1.6943   -4.4548 N   0  0  0  0  0  0  0  0  0  0  0  0
    0.1960    1.5953   -4.8084 C   0  0  0  0  0  0  0  0  0  0  0  0
    0.6463    0.4492   -5.3438 N   0  0  0  0  0  0  0  0  0  0  0  0
    1.9431    0.3890   -5.6953 C   0  0  0  0  0  0  0  0  0  0  0  0
    2.8256    1.4240   -5.5243 C   0  0  0  0  0  0  0  0  0  0  0  0
    2.3021    2.5643   -4.9586 C   0  0  0  0  0  0  0  0  0  0  0  0
    3.1766    3.7774   -4.7168 C   0  0  0  0  0  0  0  0  0  0  0  0
    2.6852    4.9717   -5.5361 C   0  0  0  0  0  0  0  0  0  0  0  0
    3.2246    4.1230   -3.2274 C   0  0  0  0  0  0  0  0  0  0  0  0
    1.0016    2.6512   -4.6014 N   0  0  0  0  0  0  0  0  0  0  0  0
   -1.4514    2.7234   -3.4382 C   0  0  0  0  0  0  0  0  0  0  0  0
   -1.0844    2.2051   -2.0289 C   0  0  0  0  0  0  0  0  0  0  0  0
   -4.4569   -1.0847   -1.6269 C   0  0  0  0  0  0  0  0  0  0  0  0
   -5.3989   -0.3789   -2.4015 C   0  0  0  0  0  0  0  0  0  0  0  0
   -6.1374   -1.0130   -3.4030 C   0  0  0  0  0  0  0  0  0  0  0  0
   -5.9635   -2.3721   -3.6409 C   0  0  0  0  0  0  0  0  0  0  0  0
   -5.0619   -3.0983   -2.8688 C   0  0  0  0  0  0  0  0  0  0  0  0
   -4.3217   -2.4637   -1.8662 C   0  0  0  0  0  0  0  0  0  0  0  0
  1  2  1  0
  2  3  1  0
  3  4  1  1
  3  5  1  0
  3 22  1  0
  5  7  1  0
  5  6  2  0
  7  8  1  0
  7 21  1  0
  8  9  1  0
  9 10  1  0
 10 11  1  0
 10 20  1  0
 11 19  1  0
 11 12  2  0
 12 13  1  0
 13 14  2  0
 14 15  1  0
 15 16  1  0
 15 19  2  0
 16 17  1  0
 16 18  1  0
 20 21  1  0
 22 27  1  0
 22 23  2  0
 23 24  1  0
 24 25  2  0
 25 26  1  0
 26 27  2  0
M  END
>  <Torsion_Angle>  (62) 
305

>  <MMFF94_Energy>  (62) 
68.03

>  <MMFF94_Relative_Energy>  (62) 
8.26

$$$$
Mol1_Deg310
     RDKit          3D

 27 29  0  0  0  0  0  0  0  0999 V2000
   -5.9407    0.3918   -0.0669 C   0  0  0  0  0  0  0  0  0  0  0  0
   -4.6948   -0.0847    0.4213 O   0  0  0  0  0  0  0  0  0  0  0  0
   -3.6688   -0.3474   -0.5637 C   0  0  2  0  0  0  0  0  0  0  0  0
   -2.5993   -1.0324    0.3309 C   0  0  0  0  0  0  0  0  0  0  0  0
   -3.0071    0.9836   -1.1250 C   0  0  0  0  0  0  0  0  0  0  0  0
   -3.6354    2.0482   -1.1694 O   0  0  0  0  0  0  0  0  0  0  0  0
   -1.6924    0.9462   -1.6163 N   0  0  0  0  0  0  0  0  0  0  0  0
   -1.0838    2.2458   -1.9297 C   0  0  0  0  0  0  0  0  0  0  0  0
    0.4516    2.1837   -2.0015 C   0  0  0  0  0  0  0  0  0  0  0  0
    0.8942    1.0914   -2.8827 N   0  0  0  0  0  0  0  0  0  0  0  0
    2.2804    1.0480   -3.0629 C   0  0  0  0  0  0  0  0  0  0  0  0
    2.9938    2.1744   -2.9028 N   0  0  0  0  0  0  0  0  0  0  0  0
    4.3206    2.1102   -3.1116 C   0  0  0  0  0  0  0  0  0  0  0  0
    4.9782    0.9634   -3.4748 C   0  0  0  0  0  0  0  0  0  0  0  0
    4.1882   -0.1544   -3.6215 C   0  0  0  0  0  0  0  0  0  0  0  0
    4.7983   -1.4821   -4.0222 C   0  0  0  0  0  0  0  0  0  0  0  0
    4.5758   -2.5321   -2.9325 C   0  0  0  0  0  0  0  0  0  0  0  0
    4.2303   -1.9587   -5.3599 C   0  0  0  0  0  0  0  0  0  0  0  0
    2.8523   -0.1163   -3.4191 N   0  0  0  0  0  0  0  0  0  0  0  0
    0.3004   -0.2202   -2.5867 C   0  0  0  0  0  0  0  0  0  0  0  0
   -1.2338   -0.1214   -2.5189 C   0  0  0  0  0  0  0  0  0  0  0  0
   -4.2068   -1.2758   -1.6668 C   0  0  0  0  0  0  0  0  0  0  0  0
   -4.3571   -2.6579   -1.4507 C   0  0  0  0  0  0  0  0  0  0  0  0
   -4.8536   -3.4965   -2.4524 C   0  0  0  0  0  0  0  0  0  0  0  0
   -5.2252   -2.9694   -3.6852 C   0  0  0  0  0  0  0  0  0  0  0  0
   -5.1133   -1.6018   -3.9135 C   0  0  0  0  0  0  0  0  0  0  0  0
   -4.6179   -0.7622   -2.9127 C   0  0  0  0  0  0  0  0  0  0  0  0
  1  2  1  0
  2  3  1  0
  3  4  1  1
  3  5  1  0
  3 22  1  0
  5  7  1  0
  5  6  2  0
  7  8  1  0
  7 21  1  0
  8  9  1  0
  9 10  1  0
 10 11  1  0
 10 20  1  0
 11 19  1  0
 11 12  2  0
 12 13  1  0
 13 14  2  0
 14 15  1  0
 15 16  1  0
 15 19  2  0
 16 17  1  0
 16 18  1  0
 20 21  1  0
 22 27  1  0
 22 23  2  0
 23 24  1  0
 24 25  2  0
 25 26  1  0
 26 27  2  0
M  END
>  <Torsion_Angle>  (63) 
310

>  <MMFF94_Energy>  (63) 
68.50

>  <MMFF94_Relative_Energy>  (63) 
8.74

$$$$
Mol1_Deg315
     RDKit          3D

 27 29  0  0  0  0  0  0  0  0999 V2000
   -5.9891    0.3749   -0.2367 C   0  0  0  0  0  0  0  0  0  0  0  0
   -4.7711   -0.0704    0.3427 O   0  0  0  0  0  0  0  0  0  0  0  0
   -3.6786   -0.3422   -0.5660 C   0  0  2  0  0  0  0  0  0  0  0  0
   -2.6570   -0.9849    0.4111 C   0  0  0  0  0  0  0  0  0  0  0  0
   -3.0033    0.9859   -1.1154 C   0  0  0  0  0  0  0  0  0  0  0  0
   -3.6350    2.0479   -1.1789 O   0  0  0  0  0  0  0  0  0  0  0  0
   -1.6727    0.9547   -1.5606 N   0  0  0  0  0  0  0  0  0  0  0  0
   -1.0696    2.2535   -1.8890 C   0  0  0  0  0  0  0  0  0  0  0  0
    0.4682    2.2169   -1.8854 C   0  0  0  0  0  0  0  0  0  0  0  0
    0.9709    1.1022   -2.7037 N   0  0  0  0  0  0  0  0  0  0  0  0
    2.3647    1.0792   -2.8175 C   0  0  0  0  0  0  0  0  0  0  0  0
    3.0490    2.2252   -2.6702 N   0  0  0  0  0  0  0  0  0  0  0  0
    4.3852    2.1795   -2.8146 C   0  0  0  0  0  0  0  0  0  0  0  0
    5.0799    1.0327   -3.1006 C   0  0  0  0  0  0  0  0  0  0  0  0
    4.3182   -0.1055   -3.2389 C   0  0  0  0  0  0  0  0  0  0  0  0
    4.9707   -1.4358   -3.5554 C   0  0  0  0  0  0  0  0  0  0  0  0
    4.7342   -2.4374   -2.4239 C   0  0  0  0  0  0  0  0  0  0  0  0
    4.4596   -1.9893   -4.8865 C   0  0  0  0  0  0  0  0  0  0  0  0
    2.9738   -0.0865   -3.0996 N   0  0  0  0  0  0  0  0  0  0  0  0
    0.3871   -0.2086   -2.3858 C   0  0  0  0  0  0  0  0  0  0  0  0
   -1.1501   -0.1379   -2.3959 C   0  0  0  0  0  0  0  0  0  0  0  0
   -4.1340   -1.3050   -1.6764 C   0  0  0  0  0  0  0  0  0  0  0  0
   -4.2708   -2.6848   -1.4379 C   0  0  0  0  0  0  0  0  0  0  0  0
   -4.6938   -3.5543   -2.4469 C   0  0  0  0  0  0  0  0  0  0  0  0
   -5.0042   -3.0613   -3.7105 C   0  0  0  0  0  0  0  0  0  0  0  0
   -4.9045   -1.6970   -3.9630 C   0  0  0  0  0  0  0  0  0  0  0  0
   -4.4826   -0.8265   -2.9550 C   0  0  0  0  0  0  0  0  0  0  0  0
  1  2  1  0
  2  3  1  0
  3  4  1  1
  3  5  1  0
  3 22  1  0
  5  7  1  0
  5  6  2  0
  7  8  1  0
  7 21  1  0
  8  9  1  0
  9 10  1  0
 10 11  1  0
 10 20  1  0
 11 19  1  0
 11 12  2  0
 12 13  1  0
 13 14  2  0
 14 15  1  0
 15 16  1  0
 15 19  2  0
 16 17  1  0
 16 18  1  0
 20 21  1  0
 22 27  1  0
 22 23  2  0
 23 24  1  0
 24 25  2  0
 25 26  1  0
 26 27  2  0
M  END
>  <Torsion_Angle>  (64) 
315

>  <MMFF94_Energy>  (64) 
68.17

>  <MMFF94_Relative_Energy>  (64) 
8.40

$$$$
Mol1_Deg320
     RDKit          3D

 27 29  0  0  0  0  0  0  0  0999 V2000
   -6.0251    0.3546   -0.4086 C   0  0  0  0  0  0  0  0  0  0  0  0
   -4.8419   -0.0607    0.2586 O   0  0  0  0  0  0  0  0  0  0  0  0
   -3.6883   -0.3378   -0.5699 C   0  0  2  0  0  0  0  0  0  0  0  0
   -2.7208   -0.9396    0.4842 C   0  0  0  0  0  0  0  0  0  0  0  0
   -2.9997    0.9883   -1.1052 C   0  0  0  0  0  0  0  0  0  0  0  0
   -3.6343    2.0475   -1.1884 O   0  0  0  0  0  0  0  0  0  0  0  0
   -1.6542    0.9638   -1.5023 N   0  0  0  0  0  0  0  0  0  0  0  0
   -1.0530    2.2605   -1.8427 C   0  0  0  0  0  0  0  0  0  0  0  0
    0.4831    2.2489   -1.7604 C   0  0  0  0  0  0  0  0  0  0  0  0
    1.0432    1.1148   -2.5120 N   0  0  0  0  0  0  0  0  0  0  0  0
    2.4413    1.1108   -2.5542 C   0  0  0  0  0  0  0  0  0  0  0  0
    3.1006    2.2721   -2.4126 N   0  0  0  0  0  0  0  0  0  0  0  0
    4.4430    2.2431   -2.4871 C   0  0  0  0  0  0  0  0  0  0  0  0
    5.1679    1.0986   -2.6973 C   0  0  0  0  0  0  0  0  0  0  0  0
    4.4308   -0.0559   -2.8344 C   0  0  0  0  0  0  0  0  0  0  0  0
    5.1176   -1.3855   -3.0707 C   0  0  0  0  0  0  0  0  0  0  0  0
    4.8385   -2.3513   -1.9179 C   0  0  0  0  0  0  0  0  0  0  0  0
    4.6825   -1.9928   -4.4054 C   0  0  0  0  0  0  0  0  0  0  0  0
    3.0809   -0.0538   -2.7642 N   0  0  0  0  0  0  0  0  0  0  0  0
    0.4641   -0.1933   -2.1759 C   0  0  0  0  0  0  0  0  0  0  0  0
   -1.0714   -0.1498   -2.2673 C   0  0  0  0  0  0  0  0  0  0  0  0
   -4.0607   -1.3315   -1.6840 C   0  0  0  0  0  0  0  0  0  0  0  0
   -4.1832   -2.7090   -1.4259 C   0  0  0  0  0  0  0  0  0  0  0  0
   -4.5310   -3.6059   -2.4396 C   0  0  0  0  0  0  0  0  0  0  0  0
   -4.7794   -3.1435   -3.7282 C   0  0  0  0  0  0  0  0  0  0  0  0
   -4.6929   -1.7824   -4.0021 C   0  0  0  0  0  0  0  0  0  0  0  0
   -4.3460   -0.8846   -2.9896 C   0  0  0  0  0  0  0  0  0  0  0  0
  1  2  1  0
  2  3  1  0
  3  4  1  1
  3  5  1  0
  3 22  1  0
  5  7  1  0
  5  6  2  0
  7  8  1  0
  7 21  1  0
  8  9  1  0
  9 10  1  0
 10 11  1  0
 10 20  1  0
 11 19  1  0
 11 12  2  0
 12 13  1  0
 13 14  2  0
 14 15  1  0
 15 16  1  0
 15 19  2  0
 16 17  1  0
 16 18  1  0
 20 21  1  0
 22 27  1  0
 22 23  2  0
 23 24  1  0
 24 25  2  0
 25 26  1  0
 26 27  2  0
M  END
>  <Torsion_Angle>  (65) 
320

>  <MMFF94_Energy>  (65) 
67.89

>  <MMFF94_Relative_Energy>  (65) 
8.13

$$$$
Mol1_Deg325
     RDKit          3D

 27 29  0  0  0  0  0  0  0  0999 V2000
   -6.0538    0.3534   -0.5459 C   0  0  0  0  0  0  0  0  0  0  0  0
   -4.9029   -0.0577    0.1765 O   0  0  0  0  0  0  0  0  0  0  0  0
   -3.7046   -0.3355   -0.5870 C   0  0  2  0  0  0  0  0  0  0  0  0
   -2.7971   -0.9450    0.5130 C   0  0  0  0  0  0  0  0  0  0  0  0
   -2.9931    0.9950   -1.0795 C   0  0  0  0  0  0  0  0  0  0  0  0
   -3.6334    2.0464   -1.2081 O   0  0  0  0  0  0  0  0  0  0  0  0
   -1.6242    0.9897   -1.3698 N   0  0  0  0  0  0  0  0  0  0  0  0
   -0.9792    2.2939   -1.6154 C   0  0  0  0  0  0  0  0  0  0  0  0
   -0.8493    2.5735   -3.1271 C   0  0  0  0  0  0  0  0  0  0  0  0
   -0.1353    1.4628   -3.7915 N   0  0  0  0  0  0  0  0  0  0  0  0
    1.2512    1.4801   -3.6269 C   0  0  0  0  0  0  0  0  0  0  0  0
    1.9381    0.3343   -3.7613 N   0  0  0  0  0  0  0  0  0  0  0  0
    3.2742    0.3845   -3.6150 C   0  0  0  0  0  0  0  0  0  0  0  0
    3.9647    1.5333   -3.3269 C   0  0  0  0  0  0  0  0  0  0  0  0
    3.1991    2.6690   -3.1924 C   0  0  0  0  0  0  0  0  0  0  0  0
    3.8445    4.0021   -2.8738 C   0  0  0  0  0  0  0  0  0  0  0  0
    3.6280    4.9952   -4.0165 C   0  0  0  0  0  0  0  0  0  0  0  0
    3.3072    4.5641   -1.5562 C   0  0  0  0  0  0  0  0  0  0  0  0
    1.8559    2.6455   -3.3400 N   0  0  0  0  0  0  0  0  0  0  0  0
   -0.7664    0.1504   -3.5613 C   0  0  0  0  0  0  0  0  0  0  0  0
   -0.9298   -0.1265   -2.0454 C   0  0  0  0  0  0  0  0  0  0  0  0
   -4.0179   -1.3167   -1.7306 C   0  0  0  0  0  0  0  0  0  0  0  0
   -4.0886   -2.7044   -1.5124 C   0  0  0  0  0  0  0  0  0  0  0  0
   -4.3788   -3.5863   -2.5572 C   0  0  0  0  0  0  0  0  0  0  0  0
   -4.6207   -3.0992   -3.8379 C   0  0  0  0  0  0  0  0  0  0  0  0
   -4.5864   -1.7289   -4.0731 C   0  0  0  0  0  0  0  0  0  0  0  0
   -4.2971   -0.8466   -3.0294 C   0  0  0  0  0  0  0  0  0  0  0  0
  1  2  1  0
  2  3  1  0
  3  4  1  1
  3  5  1  0
  3 22  1  0
  5  7  1  0
  5  6  2  0
  7  8  1  0
  7 21  1  0
  8  9  1  0
  9 10  1  0
 10 11  1  0
 10 20  1  0
 11 19  1  0
 11 12  2  0
 12 13  1  0
 13 14  2  0
 14 15  1  0
 15 16  1  0
 15 19  2  0
 16 17  1  0
 16 18  1  0
 20 21  1  0
 22 27  1  0
 22 23  2  0
 23 24  1  0
 24 25  2  0
 25 26  1  0
 26 27  2  0
M  END
>  <Torsion_Angle>  (66) 
325

>  <MMFF94_Energy>  (66) 
67.48

>  <MMFF94_Relative_Energy>  (66) 
7.72

$$$$
Mol1_Deg330
     RDKit          3D

 27 29  0  0  0  0  0  0  0  0999 V2000
   -4.9251    0.7259    1.2564 C   0  0  0  0  0  0  0  0  0  0  0  0
   -4.9672   -0.0561    0.0721 O   0  0  0  0  0  0  0  0  0  0  0  0
   -3.7036   -0.3320   -0.5750 C   0  0  2  0  0  0  0  0  0  0  0  0
   -2.7959   -1.0355    0.4596 C   0  0  0  0  0  0  0  0  0  0  0  0
   -2.9954    0.9925   -1.0913 C   0  0  0  0  0  0  0  0  0  0  0  0
   -3.6308    2.0491   -1.2024 O   0  0  0  0  0  0  0  0  0  0  0  0
   -1.6340    0.9673   -1.4177 N   0  0  0  0  0  0  0  0  0  0  0  0
   -1.0044    2.2611   -1.7120 C   0  0  0  0  0  0  0  0  0  0  0  0
   -1.1162    2.6224   -3.2061 C   0  0  0  0  0  0  0  0  0  0  0  0
   -0.5840    1.5217   -4.0345 N   0  0  0  0  0  0  0  0  0  0  0  0
   -0.5546    1.8189   -5.4008 C   0  0  0  0  0  0  0  0  0  0  0  0
   -0.5367    0.8087   -6.2857 N   0  0  0  0  0  0  0  0  0  0  0  0
   -0.4826    1.1231   -7.5916 C   0  0  0  0  0  0  0  0  0  0  0  0
   -0.4411    2.4101   -8.0625 C   0  0  0  0  0  0  0  0  0  0  0  0
   -0.4552    3.3987   -7.1033 C   0  0  0  0  0  0  0  0  0  0  0  0
   -0.4112    4.8696   -7.4626 C   0  0  0  0  0  0  0  0  0  0  0  0
    0.8818    5.2356   -8.1933 C   0  0  0  0  0  0  0  0  0  0  0  0
   -1.6398    5.2902   -8.2710 C   0  0  0  0  0  0  0  0  0  0  0  0
   -0.5086    3.1074   -5.7848 N   0  0  0  0  0  0  0  0  0  0  0  0
   -1.1380    0.1886   -3.7351 C   0  0  0  0  0  0  0  0  0  0  0  0
   -1.0424   -0.1120   -2.2217 C   0  0  0  0  0  0  0  0  0  0  0  0
   -4.1230   -1.2135   -1.7636 C   0  0  0  0  0  0  0  0  0  0  0  0
   -4.8346   -0.6362   -2.8347 C   0  0  0  0  0  0  0  0  0  0  0  0
   -5.2250   -1.3949   -3.9400 C   0  0  0  0  0  0  0  0  0  0  0  0
   -4.9289   -2.7528   -3.9909 C   0  0  0  0  0  0  0  0  0  0  0  0
   -4.2556   -3.3534   -2.9311 C   0  0  0  0  0  0  0  0  0  0  0  0
   -3.8639   -2.5942   -1.8240 C   0  0  0  0  0  0  0  0  0  0  0  0
  1  2  1  0
  2  3  1  0
  3  4  1  1
  3  5  1  0
  3 22  1  0
  5  7  1  0
  5  6  2  0
  7  8  1  0
  7 21  1  0
  8  9  1  0
  9 10  1  0
 10 11  1  0
 10 20  1  0
 11 19  1  0
 11 12  2  0
 12 13  1  0
 13 14  2  0
 14 15  1  0
 15 16  1  0
 15 19  2  0
 16 17  1  0
 16 18  1  0
 20 21  1  0
 22 27  1  0
 22 23  2  0
 23 24  1  0
 24 25  2  0
 25 26  1  0
 26 27  2  0
M  END
>  <Torsion_Angle>  (67) 
330

>  <MMFF94_Energy>  (67) 
67.41

>  <MMFF94_Relative_Energy>  (67) 
7.65

$$$$
Mol1_Deg335
     RDKit          3D

 27 29  0  0  0  0  0  0  0  0999 V2000
   -6.0582    0.2749   -0.9295 C   0  0  0  0  0  0  0  0  0  0  0  0
   -5.0175   -0.0590   -0.0224 O   0  0  0  0  0  0  0  0  0  0  0  0
   -3.7134   -0.3292   -0.5904 C   0  0  2  0  0  0  0  0  0  0  0  0
   -2.9378   -0.8118    0.6625 C   0  0  0  0  0  0  0  0  0  0  0  0
   -2.9896    0.9964   -1.0721 C   0  0  0  0  0  0  0  0  0  0  0  0
   -3.6321    2.0453   -1.2148 O   0  0  0  0  0  0  0  0  0  0  0  0
   -1.6093    0.9996   -1.3159 N   0  0  0  0  0  0  0  0  0  0  0  0
   -1.0086    2.2916   -1.6780 C   0  0  0  0  0  0  0  0  0  0  0  0
    0.4954    2.3661   -1.3631 C   0  0  0  0  0  0  0  0  0  0  0  0
    1.2070    1.2004   -1.9093 N   0  0  0  0  0  0  0  0  0  0  0  0
    2.5943    1.2672   -1.7447 C   0  0  0  0  0  0  0  0  0  0  0  0
    3.1786    2.4700   -1.6212 N   0  0  0  0  0  0  0  0  0  0  0  0
    4.5168    2.5061   -1.4947 C   0  0  0  0  0  0  0  0  0  0  0  0
    5.3096    1.3876   -1.4841 C   0  0  0  0  0  0  0  0  0  0  0  0
    4.6476    0.1878   -1.6148 C   0  0  0  0  0  0  0  0  0  0  0  0
    5.4142   -1.1190   -1.6198 C   0  0  0  0  0  0  0  0  0  0  0  0
    4.9878   -2.0023   -0.4460 C   0  0  0  0  0  0  0  0  0  0  0  0
    5.2267   -1.8533   -2.9483 C   0  0  0  0  0  0  0  0  0  0  0  0
    3.3036    0.1242   -1.7446 N   0  0  0  0  0  0  0  0  0  0  0  0
    0.6348   -0.0995   -1.5329 C   0  0  0  0  0  0  0  0  0  0  0  0
   -0.8684   -0.1494   -1.8598 C   0  0  0  0  0  0  0  0  0  0  0  0
   -3.8361   -1.4046   -1.6839 C   0  0  0  0  0  0  0  0  0  0  0  0
   -3.9364   -2.7701   -1.3613 C   0  0  0  0  0  0  0  0  0  0  0  0
   -4.0586   -3.7411   -2.3590 C   0  0  0  0  0  0  0  0  0  0  0  0
   -4.0995   -3.3668   -3.6985 C   0  0  0  0  0  0  0  0  0  0  0  0
   -4.0314   -2.0206   -4.0420 C   0  0  0  0  0  0  0  0  0  0  0  0
   -3.9101   -1.0489   -3.0457 C   0  0  0  0  0  0  0  0  0  0  0  0
  1  2  1  0
  2  3  1  0
  3  4  1  1
  3  5  1  0
  3 22  1  0
  5  7  1  0
  5  6  2  0
  7  8  1  0
  7 21  1  0
  8  9  1  0
  9 10  1  0
 10 11  1  0
 10 20  1  0
 11 19  1  0
 11 12  2  0
 12 13  1  0
 13 14  2  0
 14 15  1  0
 15 16  1  0
 15 19  2  0
 16 17  1  0
 16 18  1  0
 20 21  1  0
 22 27  1  0
 22 23  2  0
 23 24  1  0
 24 25  2  0
 25 26  1  0
 26 27  2  0
M  END
>  <Torsion_Angle>  (68) 
335

>  <MMFF94_Energy>  (68) 
67.33

>  <MMFF94_Relative_Energy>  (68) 
7.57

$$$$
Mol1_Deg340
     RDKit          3D

 27 29  0  0  0  0  0  0  0  0999 V2000
   -5.1901    0.7181    1.0496 C   0  0  0  0  0  0  0  0  0  0  0  0
   -5.0622   -0.0677   -0.1260 O   0  0  0  0  0  0  0  0  0  0  0  0
   -3.7189   -0.3302   -0.5948 C   0  0  2  0  0  0  0  0  0  0  0  0
   -2.9255   -0.9736    0.5639 C   0  0  0  0  0  0  0  0  0  0  0  0
   -2.9891    0.9990   -1.0647 C   0  0  0  0  0  0  0  0  0  0  0  0
   -3.6301    2.0469   -1.2208 O   0  0  0  0  0  0  0  0  0  0  0  0
   -1.6058    0.9974   -1.2762 N   0  0  0  0  0  0  0  0  0  0  0  0
   -0.9037   -0.0995   -1.9574 C   0  0  0  0  0  0  0  0  0  0  0  0
   -0.8428    0.1285   -3.4851 C   0  0  0  0  0  0  0  0  0  0  0  0
   -0.2982    1.4647   -3.7893 N   0  0  0  0  0  0  0  0  0  0  0  0
   -0.1355    1.7007   -5.1582 C   0  0  0  0  0  0  0  0  0  0  0  0
    0.0075    0.6532   -5.9869 N   0  0  0  0  0  0  0  0  0  0  0  0
    0.1873    0.9103   -7.2945 C   0  0  0  0  0  0  0  0  0  0  0  0
    0.2348    2.1752   -7.8212 C   0  0  0  0  0  0  0  0  0  0  0  0
    0.0870    3.2022   -6.9167 C   0  0  0  0  0  0  0  0  0  0  0  0
    0.1268    4.6456   -7.3753 C   0  0  0  0  0  0  0  0  0  0  0  0
    1.3175    5.3778   -6.7548 C   0  0  0  0  0  0  0  0  0  0  0  0
   -1.1843    5.3592   -7.0408 C   0  0  0  0  0  0  0  0  0  0  0  0
   -0.0923    2.9710   -5.5974 N   0  0  0  0  0  0  0  0  0  0  0  0
   -0.9433    2.5845   -3.0740 C   0  0  0  0  0  0  0  0  0  0  0  0
   -0.9787    2.2945   -1.5611 C   0  0  0  0  0  0  0  0  0  0  0  0
   -3.9701   -1.2587   -1.7951 C   0  0  0  0  0  0  0  0  0  0  0  0
   -4.5640   -0.7340   -2.9610 C   0  0  0  0  0  0  0  0  0  0  0  0
   -4.8016   -1.5362   -4.0789 C   0  0  0  0  0  0  0  0  0  0  0  0
   -4.4675   -2.8859   -4.0497 C   0  0  0  0  0  0  0  0  0  0  0  0
   -3.9099   -3.4352   -2.8987 C   0  0  0  0  0  0  0  0  0  0  0  0
   -3.6715   -2.6326   -1.7787 C   0  0  0  0  0  0  0  0  0  0  0  0
  1  2  1  0
  2  3  1  0
  3  4  1  1
  3  5  1  0
  3 22  1  0
  5  7  1  0
  5  6  2  0
  7  8  1  0
  7 21  1  0
  8  9  1  0
  9 10  1  0
 10 11  1  0
 10 20  1  0
 11 19  1  0
 11 12  2  0
 12 13  1  0
 13 14  2  0
 14 15  1  0
 15 16  1  0
 15 19  2  0
 16 17  1  0
 16 18  1  0
 20 21  1  0
 22 27  1  0
 22 23  2  0
 23 24  1  0
 24 25  2  0
 25 26  1  0
 26 27  2  0
M  END
>  <Torsion_Angle>  (69) 
340

>  <MMFF94_Energy>  (69) 
66.17

>  <MMFF94_Relative_Energy>  (69) 
6.40

$$$$
Mol1_Deg345
     RDKit          3D

 27 29  0  0  0  0  0  0  0  0999 V2000
   -6.0184    0.2058   -1.2719 C   0  0  0  0  0  0  0  0  0  0  0  0
   -5.0995   -0.0803   -0.2273 O   0  0  0  0  0  0  0  0  0  0  0  0
   -3.7250   -0.3279   -0.6097 C   0  0  2  0  0  0  0  0  0  0  0  0
   -3.0985   -0.7360    0.7474 C   0  0  0  0  0  0  0  0  0  0  0  0
   -2.9842    1.0025   -1.0479 C   0  0  0  0  0  0  0  0  0  0  0  0
   -3.6312    2.0428   -1.2309 O   0  0  0  0  0  0  0  0  0  0  0  0
   -1.5903    1.0300   -1.1839 N   0  0  0  0  0  0  0  0  0  0  0  0
   -0.9851    2.3192   -1.5493 C   0  0  0  0  0  0  0  0  0  0  0  0
    0.4716    2.4582   -1.0746 C   0  0  0  0  0  0  0  0  0  0  0  0
    1.2691    1.2875   -1.4705 N   0  0  0  0  0  0  0  0  0  0  0  0
    2.6276    1.4082   -1.1598 C   0  0  0  0  0  0  0  0  0  0  0  0
    3.1629    2.6342   -1.0437 N   0  0  0  0  0  0  0  0  0  0  0  0
    4.4775    2.7207   -0.7743 C   0  0  0  0  0  0  0  0  0  0  0  0
    5.2932    1.6309   -0.6124 C   0  0  0  0  0  0  0  0  0  0  0  0
    4.6814    0.4049   -0.7445 C   0  0  0  0  0  0  0  0  0  0  0  0
    5.4783   -0.8745   -0.5910 C   0  0  0  0  0  0  0  0  0  0  0  0
    4.9423   -1.7118    0.5715 C   0  0  0  0  0  0  0  0  0  0  0  0
    5.4666   -1.6799   -1.8912 C   0  0  0  0  0  0  0  0  0  0  0  0
    3.3622    0.2906   -1.0163 N   0  0  0  0  0  0  0  0  0  0  0  0
    0.6923   -0.0064   -1.0814 C   0  0  0  0  0  0  0  0  0  0  0  0
   -0.7631   -0.1245   -1.5687 C   0  0  0  0  0  0  0  0  0  0  0  0
   -3.6828   -1.4462   -1.6659 C   0  0  0  0  0  0  0  0  0  0  0  0
   -3.7770   -2.8019   -1.3027 C   0  0  0  0  0  0  0  0  0  0  0  0
   -3.7501   -3.8121   -2.2681 C   0  0  0  0  0  0  0  0  0  0  0  0
   -3.6452   -3.4883   -3.6173 C   0  0  0  0  0  0  0  0  0  0  0  0
   -3.5801   -2.1538   -4.0043 C   0  0  0  0  0  0  0  0  0  0  0  0
   -3.6079   -1.1431   -3.0405 C   0  0  0  0  0  0  0  0  0  0  0  0
  1  2  1  0
  2  3  1  0
  3  4  1  1
  3  5  1  0
  3 22  1  0
  5  7  1  0
  5  6  2  0
  7  8  1  0
  7 21  1  0
  8  9  1  0
  9 10  1  0
 10 11  1  0
 10 20  1  0
 11 19  1  0
 11 12  2  0
 12 13  1  0
 13 14  2  0
 14 15  1  0
 15 16  1  0
 15 19  2  0
 16 17  1  0
 16 18  1  0
 20 21  1  0
 22 27  1  0
 22 23  2  0
 23 24  1  0
 24 25  2  0
 25 26  1  0
 26 27  2  0
M  END
>  <Torsion_Angle>  (70) 
345

>  <MMFF94_Energy>  (70) 
67.17

>  <MMFF94_Relative_Energy>  (70) 
7.41

$$$$
Mol1_Deg350
     RDKit          3D

 27 29  0  0  0  0  0  0  0  0999 V2000
   -5.9803    0.1672   -1.4387 C   0  0  0  0  0  0  0  0  0  0  0  0
   -5.1292   -0.0976   -0.3330 O   0  0  0  0  0  0  0  0  0  0  0  0
   -3.7288   -0.3284   -0.6203 C   0  0  2  0  0  0  0  0  0  0  0  0
   -3.1817   -0.7005    0.7803 C   0  0  0  0  0  0  0  0  0  0  0  0
   -2.9820    1.0056   -1.0356 C   0  0  0  0  0  0  0  0  0  0  0  0
   -3.6310    2.0412   -1.2384 O   0  0  0  0  0  0  0  0  0  0  0  0
   -1.5848    1.0466   -1.1182 N   0  0  0  0  0  0  0  0  0  0  0  0
   -0.9764    2.3344   -1.4840 C   0  0  0  0  0  0  0  0  0  0  0  0
    0.4481    2.5081   -0.9293 C   0  0  0  0  0  0  0  0  0  0  0  0
    1.2828    1.3389   -1.2449 N   0  0  0  0  0  0  0  0  0  0  0  0
    2.6191    1.4886   -0.8594 C   0  0  0  0  0  0  0  0  0  0  0  0
    3.1304    2.7253   -0.7482 N   0  0  0  0  0  0  0  0  0  0  0  0
    4.4257    2.8389   -0.4052 C   0  0  0  0  0  0  0  0  0  0  0  0
    5.2448    1.7664   -0.1641 C   0  0  0  0  0  0  0  0  0  0  0  0
    4.6580    0.5281   -0.2958 C   0  0  0  0  0  0  0  0  0  0  0  0
    5.4612   -0.7345   -0.0587 C   0  0  0  0  0  0  0  0  0  0  0  0
    4.8678   -1.5471    1.0934 C   0  0  0  0  0  0  0  0  0  0  0  0
    5.5379   -1.5757   -1.3338 C   0  0  0  0  0  0  0  0  0  0  0  0
    3.3587    0.3866   -0.6407 N   0  0  0  0  0  0  0  0  0  0  0  0
    0.7017    0.0479   -0.8525 C   0  0  0  0  0  0  0  0  0  0  0  0
   -0.7213   -0.1061   -1.4197 C   0  0  0  0  0  0  0  0  0  0  0  0
   -3.6053   -1.4651   -1.6506 C   0  0  0  0  0  0  0  0  0  0  0  0
   -3.6961   -2.8155   -1.2674 C   0  0  0  0  0  0  0  0  0  0  0  0
   -3.5953   -3.8424   -2.2102 C   0  0  0  0  0  0  0  0  0  0  0  0
   -3.4184   -3.5412   -3.5571 C   0  0  0  0  0  0  0  0  0  0  0  0
   -3.3550   -2.2130   -3.9653 C   0  0  0  0  0  0  0  0  0  0  0  0
   -3.4565   -1.1857   -3.0242 C   0  0  0  0  0  0  0  0  0  0  0  0
  1  2  1  0
  2  3  1  0
  3  4  1  1
  3  5  1  0
  3 22  1  0
  5  7  1  0
  5  6  2  0
  7  8  1  0
  7 21  1  0
  8  9  1  0
  9 10  1  0
 10 11  1  0
 10 20  1  0
 11 19  1  0
 11 12  2  0
 12 13  1  0
 13 14  2  0
 14 15  1  0
 15 16  1  0
 15 19  2  0
 16 17  1  0
 16 18  1  0
 20 21  1  0
 22 27  1  0
 22 23  2  0
 23 24  1  0
 24 25  2  0
 25 26  1  0
 26 27  2  0
M  END
>  <Torsion_Angle>  (71) 
350

>  <MMFF94_Energy>  (71) 
67.14

>  <MMFF94_Relative_Energy>  (71) 
7.38

$$$$
Mol1_Deg355
     RDKit          3D

 27 29  0  0  0  0  0  0  0  0999 V2000
   -5.5366    0.6670    0.6768 C   0  0  0  0  0  0  0  0  0  0  0  0
   -5.1492   -0.1179   -0.4410 O   0  0  0  0  0  0  0  0  0  0  0  0
   -3.7311   -0.3338   -0.6295 C   0  0  2  0  0  0  0  0  0  0  0  0
   -3.1351   -0.8866    0.6826 C   0  0  0  0  0  0  0  0  0  0  0  0
   -2.9829    1.0093   -1.0239 C   0  0  0  0  0  0  0  0  0  0  0  0
   -3.6303    2.0418   -1.2458 O   0  0  0  0  0  0  0  0  0  0  0  0
   -1.5856    1.0519   -1.0617 N   0  0  0  0  0  0  0  0  0  0  0  0
   -0.9636    2.3553   -1.3298 C   0  0  0  0  0  0  0  0  0  0  0  0
   -0.6989    2.5487   -2.8351 C   0  0  0  0  0  0  0  0  0  0  0  0
    0.0901    1.4163   -3.3617 N   0  0  0  0  0  0  0  0  0  0  0  0
    0.4461    1.5682   -4.7062 C   0  0  0  0  0  0  0  0  0  0  0  0
    0.5375    2.8052   -5.2206 N   0  0  0  0  0  0  0  0  0  0  0  0
    0.9014    2.9213   -6.5099 C   0  0  0  0  0  0  0  0  0  0  0  0
    1.1829    1.8513   -7.3197 C   0  0  0  0  0  0  0  0  0  0  0  0
    1.0743    0.6130   -6.7285 C   0  0  0  0  0  0  0  0  0  0  0  0
    1.3608   -0.6475   -7.5185 C   0  0  0  0  0  0  0  0  0  0  0  0
    2.5659   -1.3881   -6.9369 C   0  0  0  0  0  0  0  0  0  0  0  0
    0.1310   -1.5568   -7.5565 C   0  0  0  0  0  0  0  0  0  0  0  0
    0.7156    0.4693   -5.4337 N   0  0  0  0  0  0  0  0  0  0  0  0
   -0.4430    0.0767   -3.0484 C   0  0  0  0  0  0  0  0  0  0  0  0
   -0.7426   -0.0529   -1.5381 C   0  0  0  0  0  0  0  0  0  0  0  0
   -3.7222   -1.3229   -1.8083 C   0  0  0  0  0  0  0  0  0  0  0  0
   -3.3762   -2.6788   -1.6712 C   0  0  0  0  0  0  0  0  0  0  0  0
   -3.3743   -3.5366   -2.7756 C   0  0  0  0  0  0  0  0  0  0  0  0
   -3.7358   -3.0625   -4.0334 C   0  0  0  0  0  0  0  0  0  0  0  0
   -4.1151   -1.7333   -4.1878 C   0  0  0  0  0  0  0  0  0  0  0  0
   -4.1174   -0.8758   -3.0859 C   0  0  0  0  0  0  0  0  0  0  0  0
  1  2  1  0
  2  3  1  0
  3  4  1  1
  3  5  1  0
  3 22  1  0
  5  7  1  0
  5  6  2  0
  7  8  1  0
  7 21  1  0
  8  9  1  0
  9 10  1  0
 10 11  1  0
 10 20  1  0
 11 19  1  0
 11 12  2  0
 12 13  1  0
 13 14  2  0
 14 15  1  0
 15 16  1  0
 15 19  2  0
 16 17  1  0
 16 18  1  0
 20 21  1  0
 22 27  1  0
 22 23  2  0
 23 24  1  0
 24 25  2  0
 25 26  1  0
 26 27  2  0
M  END
>  <Torsion_Angle>  (72) 
355

>  <MMFF94_Energy>  (72) 
65.91

>  <MMFF94_Relative_Energy>  (72) 
6.15

$$$$
Mol1_Deg360
     RDKit          3D

 27 29  0  0  0  0  0  0  0  0999 V2000
   -5.8698    0.0831   -1.7586 C   0  0  0  0  0  0  0  0  0  0  0  0
   -5.1645   -0.1445   -0.5471 O   0  0  0  0  0  0  0  0  0  0  0  0
   -3.7321   -0.3321   -0.6431 C   0  0  2  0  0  0  0  0  0  0  0  0
   -3.3510   -0.6373    0.8261 C   0  0  0  0  0  0  0  0  0  0  0  0
   -2.9789    1.0123   -1.0098 C   0  0  0  0  0  0  0  0  0  0  0  0
   -3.6316    2.0371   -1.2533 O   0  0  0  0  0  0  0  0  0  0  0  0
   -1.5816    1.0834   -0.9839 N   0  0  0  0  0  0  0  0  0  0  0  0
   -0.9667    2.3699   -1.3448 C   0  0  0  0  0  0  0  0  0  0  0  0
    0.3765    2.6161   -0.6364 C   0  0  0  0  0  0  0  0  0  0  0  0
    1.2722    1.4595   -0.7891 N   0  0  0  0  0  0  0  0  0  0  0  0
    2.5492    1.6711   -0.2586 C   0  0  0  0  0  0  0  0  0  0  0  0
    3.0125    2.9275   -0.1575 N   0  0  0  0  0  0  0  0  0  0  0  0
    4.2545    3.0998    0.3282 C   0  0  0  0  0  0  0  0  0  0  0  0
    5.0660    2.0678    0.7230 C   0  0  0  0  0  0  0  0  0  0  0  0
    4.5305    0.8064    0.5922 C   0  0  0  0  0  0  0  0  0  0  0  0
    5.3312   -0.4159    0.9925 C   0  0  0  0  0  0  0  0  0  0  0  0
    4.6337   -1.1747    2.1227 C   0  0  0  0  0  0  0  0  0  0  0  0
    5.5655   -1.3296   -0.2115 C   0  0  0  0  0  0  0  0  0  0  0  0
    3.2852    0.6060    0.1063 N   0  0  0  0  0  0  0  0  0  0  0  0
    0.6819    0.1726   -0.3973 C   0  0  0  0  0  0  0  0  0  0  0  0
   -0.6600   -0.0561   -1.1170 C   0  0  0  0  0  0  0  0  0  0  0  0
   -3.4503   -1.4977   -1.6085 C   0  0  0  0  0  0  0  0  0  0  0  0
   -3.5395   -2.8371   -1.1879 C   0  0  0  0  0  0  0  0  0  0  0  0
   -3.2954   -3.8905   -2.0737 C   0  0  0  0  0  0  0  0  0  0  0  0
   -2.9737   -3.6282   -3.4018 C   0  0  0  0  0  0  0  0  0  0  0  0
   -2.9084   -2.3131   -3.8498 C   0  0  0  0  0  0  0  0  0  0  0  0
   -3.1530   -1.2595   -2.9659 C   0  0  0  0  0  0  0  0  0  0  0  0
  1  2  1  0
  2  3  1  0
  3  4  1  1
  3  5  1  0
  3 22  1  0
  5  7  1  0
  5  6  2  0
  7  8  1  0
  7 21  1  0
  8  9  1  0
  9 10  1  0
 10 11  1  0
 10 20  1  0
 11 19  1  0
 11 12  2  0
 12 13  1  0
 13 14  2  0
 14 15  1  0
 15 16  1  0
 15 19  2  0
 16 17  1  0
 16 18  1  0
 20 21  1  0
 22 27  1  0
 22 23  2  0
 23 24  1  0
 24 25  2  0
 25 26  1  0
 26 27  2  0
M  END
>  <Torsion_Angle>  (73) 
360

>  <MMFF94_Energy>  (73) 
67.17

>  <MMFF94_Relative_Energy>  (73) 
7.41

$$$$
